# DDEC6 charges by PACMAN v1.1 (https://github.com/mtap-research/PACMAN-charge/)
data_2004[Co][rtl]3[ASR]1
_chemical_formula_sum              "Co4 H32 C48 N8 O16"
_cell_length_a       13.9712
_cell_length_b       13.9712
_cell_length_c       10.6685
_cell_angle_alpha    84.6976
_cell_angle_beta     95.3024
_cell_angle_gamma    41.0911

_symmetry_space_group_name_H-M    "P 1"
_symmetry_Int_Tables_number       1

loop_
  _symmetry_equiv_pos_as_xyz
  'x, y, z'

loop_
  _atom_site_type_symbol
  _atom_site_label
  _atom_site_symmetry_multiplicity
  _atom_site_fract_x
  _atom_site_fract_y
  _atom_site_fract_z
  _atom_site_occupancy
  _atom_site_charge
Co  Co1       1.0  0.37361  0.37757  0.11988  1.0000 0.9336535628
Co  Co2       1.0  0.62243  0.62639  0.61988  1.0000 0.9336535628
Co  Co3       1.0  0.12696  0.12512  0.61605  1.0000 0.9363714154
Co  Co4       1.0  0.87488  0.87304  0.11605  1.0000 0.9363714154
H   H1        1.0  0.70720  0.16700  0.23270  1.0000 0.1021740924
H   H2        1.0  0.83300  0.29280  0.73270  1.0000 0.1021740924
H   H3        1.0  0.85940  0.15720  0.36020  1.0000 0.1205682452
H   H4        1.0  0.84280  0.14060  0.86020  1.0000 0.1205682452
H   H5        1.0  0.48240  0.58200  0.38540  1.0000 0.1300511133
H   H6        1.0  0.41800  0.51760  0.88540  1.0000 0.1300511133
H   H7        1.0  0.34230  0.57690  0.25800  1.0000 0.1021740924
H   H8        1.0  0.42310  0.65770  0.75800  1.0000 0.1021740924
H   H9        1.0  0.34250  0.09530  0.50930  1.0000 0.1021740924
H   H10       1.0  0.90470  0.65750  0.00930  1.0000 0.1021740924
H   H11       1.0  0.34640  0.23840  0.38810  1.0000 0.1300511133
H   H12       1.0  0.76160  0.65360  0.88810  1.0000 0.1300511133
H   H13       1.0  0.90130  0.60930  0.36310  1.0000 0.1300511133
H   H14       1.0  0.39070  0.09870  0.86310  1.0000 0.1300511133
H   H15       1.0  0.91170  0.45470  0.48900  1.0000 0.1084922498
H   H16       1.0  0.54530  0.08830  0.98900  1.0000 0.1084922498
H   H17       1.0  0.19780  0.49380  0.83310  1.0000 0.1084922498
H   H18       1.0  0.50620  0.80220  0.33310  1.0000 0.1084922498
H   H19       1.0  0.05360  0.49520  0.70370  1.0000 0.1300511133
H   H20       1.0  0.50480  0.94640  0.20370  1.0000 0.1300511133
H   H21       1.0  0.11390  0.25650  0.01730  1.0000 0.1402975068
H   H22       1.0  0.74350  0.88610  0.51730  1.0000 0.1402975068
H   H23       1.0  0.24430  0.27110  0.14190  1.0000 0.1021740924
H   H24       1.0  0.72890  0.75570  0.64190  1.0000 0.1021740924
H   H25       1.0  0.99270  0.02110  0.59350  1.0000 0.1021740924
H   H26       1.0  0.97890  0.00730  0.09350  1.0000 0.1021740924
H   H27       1.0  0.98070  0.88670  0.71780  1.0000 0.1402975068
H   H28       1.0  0.11330  0.01930  0.21780  1.0000 0.1402975068
H   H29       1.0  0.27140  0.77600  0.01980  1.0000 0.1402975068
H   H30       1.0  0.22400  0.72860  0.51980  1.0000 0.1402975068
H   H31       1.0  0.25640  0.93240  0.89260  1.0000 0.1084922498
H   H32       1.0  0.06760  0.74360  0.39260  1.0000 0.1084922498
C   C1        1.0  0.66122  0.25182  0.26470  1.0000 0.090535983
C   C2        1.0  0.74818  0.33878  0.76470  1.0000 0.090535983
C   C3        1.0  0.75319  0.24539  0.33980  1.0000 -0.1688166911
C   C4        1.0  0.75461  0.24681  0.83980  1.0000 -0.1688166911
C   C5        1.0  0.68720  0.37060  0.38480  1.0000 0.0238935301
C   C6        1.0  0.62940  0.31280  0.88480  1.0000 0.0238935301
C   C7        1.0  0.53139  0.49539  0.35490  1.0000 -0.1612803717
C   C8        1.0  0.50461  0.46861  0.85490  1.0000 -0.1612803717
C   C9        1.0  0.44881  0.49081  0.27940  1.0000 0.0824757748
C   C10       1.0  0.50919  0.55119  0.77940  1.0000 0.0824757748
C   C11       1.0  0.78400  0.36820  0.46650  1.0000 0.5764877692
C   C12       1.0  0.63180  0.21600  0.96650  1.0000 0.5764877692
C   C13       1.0  0.25209  0.20069  0.47900  1.0000 0.090535983
C   C14       1.0  0.79931  0.74791  0.97900  1.0000 0.090535983
C   C15       1.0  0.25514  0.28514  0.40600  1.0000 -0.1612803717
C   C16       1.0  0.71486  0.74486  0.90600  1.0000 -0.1612803717
C   C17       1.0  0.12440  0.43760  0.35960  1.0000 0.0125723756
C   C18       1.0  0.56240  0.87560  0.85960  1.0000 0.0125723756
C   C19       1.0  0.99286  0.50386  0.39170  1.0000 -0.1688166911
C   C20       1.0  0.49614  0.00714  0.89170  1.0000 -0.1688166911
C   C21       1.0  0.00041  0.41061  0.46660  1.0000 0.0824757748
C   C22       1.0  0.58939  0.99959  0.96660  1.0000 0.0824757748
C   C23       1.0  0.11920  0.53480  0.27390  1.0000 0.5764877692
C   C24       1.0  0.46520  0.88080  0.77390  1.0000 0.5764877692
C   C25       1.0  0.17895  0.44675  0.87150  1.0000 0.090535983
C   C26       1.0  0.55325  0.82105  0.37150  1.0000 0.090535983
C   C27       1.0  0.09349  0.44729  0.79380  1.0000 -0.175616533
C   C28       1.0  0.55271  0.90651  0.29380  1.0000 -0.175616533
C   C29       1.0  0.06620  0.37760  0.84810  1.0000 0.0279122978
C   C30       1.0  0.62240  0.93380  0.34810  1.0000 0.0279122978
C   C31       1.0  0.12711  0.30871  0.97800  1.0000 -0.1688166911
C   C32       1.0  0.69129  0.87289  0.47800  1.0000 -0.1688166911
C   C33       1.0  0.20739  0.31519  0.05110  1.0000 0.0703266818
C   C34       1.0  0.68481  0.79261  0.55110  1.0000 0.0703266818
C   C35       1.0  0.96900  0.38040  0.76670  1.0000 0.5764877692
C   C36       1.0  0.61960  0.03100  0.26670  1.0000 0.5764877692
C   C37       1.0  0.04712  0.97372  0.68210  1.0000 0.0703266818
C   C38       1.0  0.02628  0.95288  0.18210  1.0000 0.0703266818
C   C39       1.0  0.04141  0.89101  0.75520  1.0000 -0.185487349
C   C40       1.0  0.10899  0.95859  0.25520  1.0000 -0.185487349
C   C41       1.0  0.12560  0.81440  0.88380  1.0000 0.0279122978
C   C42       1.0  0.18560  0.87440  0.38380  1.0000 0.0279122978
C   C43       1.0  0.21003  0.82843  0.93350  1.0000 -0.185487349
C   C44       1.0  0.17157  0.78997  0.43350  1.0000 -0.185487349
C   C45       1.0  0.20332  0.91932  0.85560  1.0000 0.0824757748
C   C46       1.0  0.08068  0.79668  0.35560  1.0000 0.0824757748
C   C47       1.0  0.12850  0.71930  0.96770  1.0000 0.5687912996
C   C48       1.0  0.28070  0.87150  0.46770  1.0000 0.5687912996
N   N1        1.0  0.51236  0.37056  0.23530  1.0000 -0.2299736146
N   N2        1.0  0.62944  0.48764  0.73530  1.0000 -0.2299736146
N   N3        1.0  0.12663  0.26163  0.50870  1.0000 -0.2370171775
N   N4        1.0  0.73837  0.87337  0.00870  1.0000 -0.2370171775
N   N5        1.0  0.23669  0.38109  0.00070  1.0000 -0.2495052521
N   N6        1.0  0.61891  0.76331  0.50070  1.0000 -0.2495052521
N   N7        1.0  0.12501  0.99061  0.72950  1.0000 -0.2571846102
N   N8        1.0  0.00939  0.87499  0.22950  1.0000 -0.2571846102
O   O1        1.0  0.92236  0.24576  0.49680  1.0000 -0.5612732773
O   O2        1.0  0.75424  0.07764  0.99680  1.0000 -0.5612732773
O   O3        1.0  0.71590  0.49090  0.49120  1.0000 -0.5675841127
O   O4        1.0  0.50910  0.28410  0.99120  1.0000 -0.5675841127
O   O5        1.0  0.23897  0.47517  0.25060  1.0000 -0.552818418
O   O6        1.0  0.52483  0.76103  0.75060  1.0000 -0.552818418
O   O7        1.0  0.99183  0.67143  0.23280  1.0000 -0.5612732773
O   O8        1.0  0.32857  0.00817  0.73280  1.0000 -0.5612732773
O   O9        1.0  0.02509  0.26069  0.74880  1.0000 -0.552818418
O   O10       1.0  0.73931  0.97491  0.24880  1.0000 -0.552818418
O   O11       1.0  0.83234  0.50954  0.72700  1.0000 -0.5675841127
O   O12       1.0  0.49046  0.16766  0.22700  1.0000 -0.5675841127
O   O13       1.0  0.00361  0.78061  0.97770  1.0000 -0.552818418
O   O14       1.0  0.21939  0.99639  0.47770  1.0000 -0.552818418
O   O15       1.0  0.25596  0.58756  0.01460  1.0000 -0.552818418
O   O16       1.0  0.41244  0.74404  0.51460  1.0000 -0.552818418
