# DDEC6 charges by PACMAN v1.1 (https://github.com/mtap-research/PACMAN-charge/)
data_2007[Zn][nan]3[ASR]6
_chemical_formula_sum              "Zn16 H80 C128 N48 O32"
_cell_length_a       12.62
_cell_length_b       13.339
_cell_length_c       30.978
_cell_angle_alpha    90
_cell_angle_beta     90
_cell_angle_gamma    90

_symmetry_space_group_name_H-M    "P 1"
_symmetry_Int_Tables_number       1

loop_
  _symmetry_equiv_pos_as_xyz
  'x, y, z'

loop_
  _atom_site_type_symbol
  _atom_site_label
  _atom_site_symmetry_multiplicity
  _atom_site_fract_x
  _atom_site_fract_y
  _atom_site_fract_z
  _atom_site_occupancy
  _atom_site_charge
Zn  Zn1       1.0  0.40042  0.10042  0.20299  1.0000 0.6708864811
Zn  Zn2       1.0  0.59958  0.60042  0.79701  1.0000 0.6708864811
Zn  Zn3       1.0  0.09958  0.10042  0.70299  1.0000 0.6708864811
Zn  Zn4       1.0  0.90042  0.60042  0.29701  1.0000 0.6708864811
Zn  Zn5       1.0  0.34578  0.92689  0.29566  1.0000 0.6584199908
Zn  Zn6       1.0  0.65422  0.42689  0.70434  1.0000 0.6584199908
Zn  Zn7       1.0  0.15422  0.92689  0.79566  1.0000 0.6584199908
Zn  Zn8       1.0  0.84578  0.42689  0.20434  1.0000 0.6584199908
Zn  Zn9       1.0  0.30376  0.54339  0.19533  1.0000 0.6708864811
Zn  Zn10      1.0  0.69624  0.04339  0.80467  1.0000 0.6708864811
Zn  Zn11      1.0  0.19624  0.54339  0.69533  1.0000 0.6708864811
Zn  Zn12      1.0  0.80376  0.04339  0.30467  1.0000 0.6708864811
Zn  Zn13      1.0  0.43654  0.48712  0.30157  1.0000 0.6584199908
Zn  Zn14      1.0  0.56346  0.98712  0.69843  1.0000 0.6584199908
Zn  Zn15      1.0  0.06346  0.48712  0.80157  1.0000 0.6584199908
Zn  Zn16      1.0  0.93654  0.98712  0.19843  1.0000 0.6584199908
H   H1        1.0  0.33770  0.31510  0.16610  1.0000 0.1302913641
H   H2        1.0  0.66230  0.81510  0.83390  1.0000 0.1302913641
H   H3        1.0  0.16230  0.31510  0.66610  1.0000 0.1302913641
H   H4        1.0  0.83770  0.81510  0.33390  1.0000 0.1302913641
H   H5        1.0  0.43780  0.25150  0.28020  1.0000 0.1196221131
H   H6        1.0  0.56220  0.75150  0.71980  1.0000 0.1196221131
H   H7        1.0  0.06220  0.25150  0.78020  1.0000 0.1196221131
H   H8        1.0  0.93780  0.75150  0.21980  1.0000 0.1196221131
H   H9        1.0  0.16280  0.07570  0.16850  1.0000 0.1302913641
H   H10       1.0  0.83720  0.57570  0.83150  1.0000 0.1302913641
H   H11       1.0  0.33720  0.07570  0.66850  1.0000 0.1302913641
H   H12       1.0  0.66280  0.57570  0.33150  1.0000 0.1302913641
H   H13       1.0  0.10750  0.90890  0.26990  1.0000 0.1102213623
H   H14       1.0  0.89250  0.40890  0.73010  1.0000 0.1102213623
H   H15       1.0  0.39250  0.90890  0.76990  1.0000 0.1102213623
H   H16       1.0  0.60750  0.40890  0.23010  1.0000 0.1102213623
H   H17       1.0  0.34840  0.20910  0.04980  1.0000 0.1196221131
H   H18       1.0  0.65160  0.70910  0.95020  1.0000 0.1196221131
H   H19       1.0  0.15160  0.20910  0.54980  1.0000 0.1196221131
H   H20       1.0  0.84840  0.70910  0.45020  1.0000 0.1196221131
H   H21       1.0  0.55380  0.00150  0.08310  1.0000 0.137260843
H   H22       1.0  0.44620  0.50150  0.91690  1.0000 0.137260843
H   H23       1.0  0.94620  0.00150  0.58310  1.0000 0.137260843
H   H24       1.0  0.05380  0.50150  0.41690  1.0000 0.137260843
H   H25       1.0  0.40270  0.20310  0.97870  1.0000 0.1196221131
H   H26       1.0  0.59730  0.70310  0.02130  1.0000 0.1196221131
H   H27       1.0  0.09730  0.20310  0.47870  1.0000 0.1196221131
H   H28       1.0  0.90270  0.70310  0.52130  1.0000 0.1196221131
H   H29       1.0  0.67760  0.92450  0.02810  1.0000 0.1196221131
H   H30       1.0  0.32240  0.42450  0.97190  1.0000 0.1196221131
H   H31       1.0  0.82240  0.92450  0.52810  1.0000 0.1196221131
H   H32       1.0  0.17760  0.42450  0.47190  1.0000 0.1196221131
H   H33       1.0  0.07390  0.45930  0.16770  1.0000 0.1302913641
H   H34       1.0  0.92610  0.95930  0.83230  1.0000 0.1302913641
H   H35       1.0  0.42610  0.45930  0.66770  1.0000 0.1302913641
H   H36       1.0  0.57390  0.95930  0.33230  1.0000 0.1302913641
H   H37       1.0  0.14040  0.62910  0.26610  1.0000 0.1102213623
H   H38       1.0  0.85960  0.12910  0.73390  1.0000 0.1102213623
H   H39       1.0  0.35960  0.62910  0.76610  1.0000 0.1102213623
H   H40       1.0  0.64040  0.12910  0.23390  1.0000 0.1102213623
H   H41       1.0  0.90620  0.21260  0.17080  1.0000 0.1302913641
H   H42       1.0  0.09380  0.71260  0.82920  1.0000 0.1302913641
H   H43       1.0  0.59380  0.21260  0.67080  1.0000 0.1302913641
H   H44       1.0  0.40620  0.71260  0.32920  1.0000 0.1302913641
H   H45       1.0  0.52910  0.13590  0.92270  1.0000 0.1302913641
H   H46       1.0  0.47090  0.63590  0.07730  1.0000 0.1302913641
H   H47       1.0  0.97090  0.13590  0.42270  1.0000 0.1302913641
H   H48       1.0  0.02910  0.63590  0.57730  1.0000 0.1302913641
H   H49       1.0  0.73850  0.91900  0.95790  1.0000 0.1196221131
H   H50       1.0  0.26150  0.41900  0.04210  1.0000 0.1196221131
H   H51       1.0  0.76150  0.91900  0.45790  1.0000 0.1196221131
H   H52       1.0  0.23850  0.41900  0.54210  1.0000 0.1196221131
H   H53       1.0  0.81490  0.27760  0.28560  1.0000 0.1196221131
H   H54       1.0  0.18510  0.77760  0.71440  1.0000 0.1196221131
H   H55       1.0  0.68510  0.27760  0.78560  1.0000 0.1196221131
H   H56       1.0  0.31490  0.77760  0.21440  1.0000 0.1196221131
H   H57       1.0  0.06240  0.09630  0.06620  1.0000 0.1196221131
H   H58       1.0  0.93760  0.59630  0.93380  1.0000 0.1196221131
H   H59       1.0  0.43760  0.09630  0.56620  1.0000 0.1196221131
H   H60       1.0  0.56240  0.59630  0.43380  1.0000 0.1196221131
H   H61       1.0  0.88270  0.84540  0.06300  1.0000 0.1196221131
H   H62       1.0  0.11730  0.34540  0.93700  1.0000 0.1196221131
H   H63       1.0  0.61730  0.84540  0.56300  1.0000 0.1196221131
H   H64       1.0  0.38270  0.34540  0.43700  1.0000 0.1196221131
H   H65       1.0  0.93130  0.81260  0.99150  1.0000 0.1196221131
H   H66       1.0  0.06870  0.31260  0.00850  1.0000 0.1196221131
H   H67       1.0  0.56870  0.81260  0.49150  1.0000 0.1196221131
H   H68       1.0  0.43130  0.31260  0.50850  1.0000 0.1196221131
H   H69       1.0  0.16230  0.14360  0.00050  1.0000 0.1196221131
H   H70       1.0  0.83770  0.64360  0.99950  1.0000 0.1196221131
H   H71       1.0  0.33770  0.14360  0.50050  1.0000 0.1196221131
H   H72       1.0  0.66230  0.64360  0.49950  1.0000 0.1196221131
H   H73       1.0  0.02710  0.87280  0.92580  1.0000 0.1302913641
H   H74       1.0  0.97290  0.37280  0.07420  1.0000 0.1302913641
H   H75       1.0  0.47290  0.87280  0.42580  1.0000 0.1302913641
H   H76       1.0  0.52710  0.37280  0.57420  1.0000 0.1302913641
H   H77       1.0  0.21570  0.11730  0.92910  1.0000 0.1102213623
H   H78       1.0  0.78430  0.61730  0.07090  1.0000 0.1102213623
H   H79       1.0  0.28430  0.11730  0.42910  1.0000 0.1102213623
H   H80       1.0  0.71570  0.61730  0.57090  1.0000 0.1102213623
C   C1        1.0  0.40460  0.11010  0.11880  1.0000 0.5458619463
C   C2        1.0  0.59540  0.61010  0.88120  1.0000 0.5458619463
C   C3        1.0  0.09540  0.11010  0.61880  1.0000 0.5458619463
C   C4        1.0  0.90460  0.61010  0.38120  1.0000 0.5458619463
C   C5        1.0  0.35490  0.32100  0.19590  1.0000 0.1734288265
C   C6        1.0  0.64510  0.82100  0.80410  1.0000 0.1734288265
C   C7        1.0  0.14510  0.32100  0.69590  1.0000 0.1734288265
C   C8        1.0  0.85490  0.82100  0.30410  1.0000 0.1734288265
C   C9        1.0  0.40950  0.28660  0.25620  1.0000 0.1302913641
C   C10       1.0  0.59050  0.78660  0.74380  1.0000 0.1302913641
C   C11       1.0  0.09050  0.28660  0.75620  1.0000 0.1302913641
C   C12       1.0  0.90950  0.78660  0.24380  1.0000 0.1302913641
C   C13       1.0  0.17260  0.03850  0.19440  1.0000 0.1510843578
C   C14       1.0  0.82740  0.53850  0.80560  1.0000 0.1510843578
C   C15       1.0  0.32740  0.03850  0.69440  1.0000 0.1555488202
C   C16       1.0  0.67260  0.53850  0.30560  1.0000 0.1510843578
C   C17       1.0  0.44480  0.10210  0.07310  1.0000 -0.001932548
C   C18       1.0  0.55520  0.60210  0.92690  1.0000 -0.001932548
C   C19       1.0  0.05520  0.10210  0.57310  1.0000 -0.001932548
C   C20       1.0  0.94480  0.60210  0.42690  1.0000 -0.001932548
C   C21       1.0  0.14290  0.94970  0.24930  1.0000 0.1510843578
C   C22       1.0  0.85710  0.44970  0.75070  1.0000 0.1510843578
C   C23       1.0  0.35710  0.94970  0.74930  1.0000 0.1510843578
C   C24       1.0  0.64290  0.44970  0.25070  1.0000 0.1510843578
C   C25       1.0  0.40240  0.16310  0.04180  1.0000 -0.1188779204
C   C26       1.0  0.59760  0.66310  0.95820  1.0000 -0.1188779204
C   C27       1.0  0.09760  0.16310  0.54180  1.0000 -0.1188779204
C   C28       1.0  0.90240  0.66310  0.45820  1.0000 -0.1188779204
C   C29       1.0  0.52300  0.04140  0.06100  1.0000 -0.1582583476
C   C30       1.0  0.47700  0.54140  0.93900  1.0000 -0.1582583476
C   C31       1.0  0.97700  0.04140  0.56100  1.0000 -0.1509845368
C   C32       1.0  0.02300  0.54140  0.43900  1.0000 -0.1582583476
C   C33       1.0  0.43450  0.16050  0.99960  1.0000 -0.1509845368
C   C34       1.0  0.56550  0.66050  0.00040  1.0000 -0.1509845368
C   C35       1.0  0.06550  0.16050  0.49960  1.0000 -0.1509845368
C   C36       1.0  0.93450  0.66050  0.50040  1.0000 -0.1509845368
C   C37       1.0  0.56610  0.02940  0.01880  1.0000 0.0688744503
C   C38       1.0  0.43390  0.52940  0.98120  1.0000 0.0688744503
C   C39       1.0  0.93390  0.02940  0.51880  1.0000 0.0688744503
C   C40       1.0  0.06610  0.52940  0.48120  1.0000 0.0688744503
C   C41       1.0  0.51670  0.09240  0.98750  1.0000 0.0812203622
C   C42       1.0  0.48330  0.59240  0.01250  1.0000 0.0812203622
C   C43       1.0  0.98330  0.09240  0.48750  1.0000 0.0812203622
C   C44       1.0  0.01670  0.59240  0.51250  1.0000 0.0812203622
C   C45       1.0  0.64610  0.96650  0.00700  1.0000 -0.1424963144
C   C46       1.0  0.35390  0.46650  0.99300  1.0000 -0.1424963144
C   C47       1.0  0.85390  0.96650  0.50700  1.0000 -0.1424963144
C   C48       1.0  0.14610  0.46650  0.49300  1.0000 -0.1424963144
C   C49       1.0  0.06920  0.49390  0.19450  1.0000 0.1734288265
C   C50       1.0  0.93080  0.99390  0.80550  1.0000 0.1734288265
C   C51       1.0  0.43080  0.49390  0.69450  1.0000 0.1734288265
C   C52       1.0  0.56920  0.99390  0.30550  1.0000 0.1734288265
C   C53       1.0  0.10440  0.58610  0.24650  1.0000 0.137260843
C   C54       1.0  0.89560  0.08610  0.75350  1.0000 0.137260843
C   C55       1.0  0.39560  0.58610  0.74650  1.0000 0.137260843
C   C56       1.0  0.60440  0.08610  0.25350  1.0000 0.137260843
C   C57       1.0  0.95860  0.98600  0.11860  1.0000 0.5373634639
C   C58       1.0  0.04140  0.48600  0.88140  1.0000 0.5373634639
C   C59       1.0  0.54140  0.98600  0.61860  1.0000 0.5373634639
C   C60       1.0  0.45860  0.48600  0.38140  1.0000 0.5373634639
C   C61       1.0  0.89070  0.20690  0.20070  1.0000 0.1734288265
C   C62       1.0  0.10930  0.70690  0.79930  1.0000 0.1734288265
C   C63       1.0  0.60930  0.20690  0.70070  1.0000 0.1734288265
C   C64       1.0  0.39070  0.70690  0.29930  1.0000 0.1734288265
C   C65       1.0  0.55620  0.09120  0.94390  1.0000 -0.1582583476
C   C66       1.0  0.44380  0.59120  0.05610  1.0000 -0.1582583476
C   C67       1.0  0.94380  0.09120  0.44390  1.0000 -0.1582583476
C   C68       1.0  0.05620  0.59120  0.55610  1.0000 -0.1582583476
C   C69       1.0  0.68190  0.96240  0.96560  1.0000 -0.1188779204
C   C70       1.0  0.31810  0.46240  0.03440  1.0000 -0.1188779204
C   C71       1.0  0.81810  0.96240  0.46560  1.0000 -0.1188779204
C   C72       1.0  0.18190  0.46240  0.53440  1.0000 -0.1188779204
C   C73       1.0  0.97850  0.96940  0.07160  1.0000 -0.0125152614
C   C74       1.0  0.02150  0.46940  0.92840  1.0000 -0.0125152614
C   C75       1.0  0.52150  0.96940  0.57160  1.0000 -0.0125152614
C   C76       1.0  0.47850  0.46940  0.42840  1.0000 -0.0125152614
C   C77       1.0  0.84040  0.24130  0.26130  1.0000 0.1302913641
C   C78       1.0  0.15960  0.74130  0.73870  1.0000 0.1302913641
C   C79       1.0  0.65960  0.24130  0.76130  1.0000 0.1302913641
C   C80       1.0  0.34040  0.74130  0.23870  1.0000 0.1302913641
C   C81       1.0  0.63280  0.02460  0.93410  1.0000 0.0095036424
C   C82       1.0  0.36720  0.52460  0.06590  1.0000 0.0095036424
C   C83       1.0  0.86720  0.02460  0.43410  1.0000 0.0095036424
C   C84       1.0  0.13280  0.52460  0.56590  1.0000 0.0095036424
C   C85       1.0  0.03970  0.03780  0.05130  1.0000 -0.1509845368
C   C86       1.0  0.96030  0.53780  0.94870  1.0000 -0.1509845368
C   C87       1.0  0.46030  0.03780  0.55130  1.0000 -0.1424963144
C   C88       1.0  0.53970  0.53780  0.44870  1.0000 -0.1424963144
C   C89       1.0  0.93160  0.88810  0.04860  1.0000 -0.103897622
C   C90       1.0  0.06840  0.38810  0.95140  1.0000 -0.103897622
C   C91       1.0  0.56840  0.88810  0.54860  1.0000 -0.103897622
C   C92       1.0  0.43160  0.38810  0.45140  1.0000 -0.103897622
C   C93       1.0  0.67940  0.01660  0.88850  1.0000 0.5458619463
C   C94       1.0  0.32060  0.51660  0.11150  1.0000 0.5458619463
C   C95       1.0  0.82060  0.01660  0.38850  1.0000 0.5458619463
C   C96       1.0  0.17940  0.51660  0.61150  1.0000 0.5458619463
C   C97       1.0  0.07070  0.02220  0.00680  1.0000 0.0688744503
C   C98       1.0  0.92930  0.52220  0.99320  1.0000 0.0688744503
C   C99       1.0  0.42930  0.02220  0.50680  1.0000 0.0688744503
C   C100      1.0  0.57070  0.52220  0.49320  1.0000 0.0688744503
C   C101      1.0  0.95570  0.87050  0.00630  1.0000 -0.1582583476
C   C102      1.0  0.04430  0.37050  0.99370  1.0000 -0.1582583476
C   C103      1.0  0.54430  0.87050  0.50630  1.0000 -0.1582583476
C   C104      1.0  0.45570  0.37050  0.49370  1.0000 -0.1582583476
C   C105      1.0  0.02080  0.94550  0.98550  1.0000 0.0812203622
C   C106      1.0  0.97920  0.44550  0.01450  1.0000 0.0812203622
C   C107      1.0  0.47920  0.94550  0.48550  1.0000 0.0812203622
C   C108      1.0  0.52080  0.44550  0.51450  1.0000 0.0812203622
C   C109      1.0  0.13640  0.08660  0.98550  1.0000 -0.1509845368
C   C110      1.0  0.86360  0.58660  0.01450  1.0000 -0.1509845368
C   C111      1.0  0.36360  0.08660  0.48550  1.0000 -0.1509845368
C   C112      1.0  0.63640  0.58660  0.51450  1.0000 -0.1509845368
C   C113      1.0  0.05460  0.92870  0.94120  1.0000 -0.1424963144
C   C114      1.0  0.94540  0.42870  0.05880  1.0000 -0.1424963144
C   C115      1.0  0.44540  0.92870  0.44120  1.0000 -0.1424963144
C   C116      1.0  0.55460  0.42870  0.55880  1.0000 -0.1424963144
C   C117      1.0  0.16740  0.07310  0.94290  1.0000 -0.1114497875
C   C118      1.0  0.83260  0.57310  0.05710  1.0000 -0.1114497875
C   C119      1.0  0.33260  0.07310  0.44290  1.0000 -0.1114497875
C   C120      1.0  0.66740  0.57310  0.55710  1.0000 -0.1114497875
C   C121      1.0  0.12330  0.98990  0.92140  1.0000 0.0095036424
C   C122      1.0  0.87670  0.48990  0.07860  1.0000 0.0095036424
C   C123      1.0  0.37670  0.98990  0.42140  1.0000 0.0095036424
C   C124      1.0  0.62330  0.48990  0.57860  1.0000 0.0095036424
C   C125      1.0  0.15300  0.97400  0.87290  1.0000 0.5333329382
C   C126      1.0  0.84700  0.47400  0.12710  1.0000 0.5333329382
C   C127      1.0  0.34700  0.97400  0.37290  1.0000 0.5333329382
C   C128      1.0  0.65300  0.47400  0.62710  1.0000 0.5333329382
N   N1        1.0  0.38360  0.24460  0.21850  1.0000 -0.3088979107
N   N2        1.0  0.61640  0.74460  0.78150  1.0000 -0.3088979107
N   N3        1.0  0.11640  0.24460  0.71850  1.0000 -0.3088979107
N   N4        1.0  0.88360  0.74460  0.28150  1.0000 -0.3088979107
N   N5        1.0  0.26600  0.03230  0.21620  1.0000 -0.225932004
N   N6        1.0  0.73400  0.53230  0.78380  1.0000 -0.225932004
N   N7        1.0  0.23400  0.03230  0.71620  1.0000 -0.225932004
N   N8        1.0  0.76600  0.53230  0.28380  1.0000 -0.225932004
N   N9        1.0  0.50590  0.06140  0.24980  1.0000 -0.1929454404
N   N10       1.0  0.49410  0.56140  0.75020  1.0000 -0.1929454404
N   N11       1.0  0.99410  0.06140  0.74980  1.0000 -0.1929454404
N   N12       1.0  0.00590  0.56140  0.25020  1.0000 -0.1929454404
N   N13       1.0  0.23840  0.97510  0.25260  1.0000 -0.1929454404
N   N14       1.0  0.76160  0.47510  0.74740  1.0000 -0.1929454404
N   N15       1.0  0.26160  0.97510  0.75260  1.0000 -0.1929454404
N   N16       1.0  0.73840  0.47510  0.24740  1.0000 -0.1929454404
N   N17       1.0  0.35070  0.40780  0.21620  1.0000 -0.2005119977
N   N18       1.0  0.64930  0.90780  0.78380  1.0000 -0.2005119977
N   N19       1.0  0.14930  0.40780  0.71620  1.0000 -0.2005119977
N   N20       1.0  0.85070  0.90780  0.28380  1.0000 -0.2005119977
N   N21       1.0  0.39040  0.38360  0.25520  1.0000 -0.1784705577
N   N22       1.0  0.60960  0.88360  0.74480  1.0000 -0.1784705577
N   N23       1.0  0.10960  0.38360  0.75520  1.0000 -0.1784705577
N   N24       1.0  0.89040  0.88360  0.24480  1.0000 -0.1784705577
N   N25       1.0  0.09610  0.98550  0.21400  1.0000 -0.3088979107
N   N26       1.0  0.90390  0.48550  0.78600  1.0000 -0.3088979107
N   N27       1.0  0.40390  0.98550  0.71400  1.0000 -0.3088979107
N   N28       1.0  0.59610  0.48550  0.28600  1.0000 -0.3088979107
N   N29       1.0  0.15020  0.54410  0.21180  1.0000 -0.3171392065
N   N30       1.0  0.84980  0.04410  0.78820  1.0000 -0.3171392065
N   N31       1.0  0.34980  0.54410  0.71180  1.0000 -0.3171392065
N   N32       1.0  0.65020  0.04410  0.28820  1.0000 -0.3171392065
N   N33       1.0  0.35420  0.64300  0.23880  1.0000 -0.1929454404
N   N34       1.0  0.64580  0.14300  0.76120  1.0000 -0.1929454404
N   N35       1.0  0.14580  0.64300  0.73880  1.0000 -0.1929454404
N   N36       1.0  0.85420  0.14300  0.26120  1.0000 -0.1929454404
N   N37       1.0  0.89280  0.12230  0.22100  1.0000 -0.1929454404
N   N38       1.0  0.10720  0.62230  0.77900  1.0000 -0.1929454404
N   N39       1.0  0.60720  0.12230  0.72100  1.0000 -0.1929454404
N   N40       1.0  0.39280  0.62230  0.27900  1.0000 -0.1929454404
N   N41       1.0  0.98650  0.49680  0.21670  1.0000 -0.1784705577
N   N42       1.0  0.01350  0.99680  0.78330  1.0000 -0.1784705577
N   N43       1.0  0.51350  0.49680  0.71670  1.0000 -0.1784705577
N   N44       1.0  0.48650  0.99680  0.28330  1.0000 -0.1784705577
N   N45       1.0  0.86580  0.28330  0.22440  1.0000 -0.3010091019
N   N46       1.0  0.13420  0.78330  0.77560  1.0000 -0.3010091019
N   N47       1.0  0.63420  0.28330  0.72440  1.0000 -0.3010091019
N   N48       1.0  0.36580  0.78330  0.27560  1.0000 -0.3010091019
O   O1        1.0  0.46660  0.06630  0.14650  1.0000 -0.5473968444
O   O2        1.0  0.53340  0.56630  0.85350  1.0000 -0.5473968444
O   O3        1.0  0.03340  0.06630  0.64650  1.0000 -0.5473968444
O   O4        1.0  0.96660  0.56630  0.35350  1.0000 -0.5473968444
O   O5        1.0  0.32500  0.15230  0.12680  1.0000 -0.5028384161
O   O6        1.0  0.67500  0.65230  0.87320  1.0000 -0.5028384161
O   O7        1.0  0.17500  0.15230  0.62680  1.0000 -0.5028384161
O   O8        1.0  0.82500  0.65230  0.37320  1.0000 -0.5028384161
O   O9        1.0  0.36350  0.57910  0.13900  1.0000 -0.5607211051
O   O10       1.0  0.63650  0.07910  0.86100  1.0000 -0.5607211051
O   O11       1.0  0.13650  0.57910  0.63900  1.0000 -0.5607211051
O   O12       1.0  0.86350  0.07910  0.36100  1.0000 -0.5607211051
O   O13       1.0  0.91800  0.90880  0.14080  1.0000 -0.5660573301
O   O14       1.0  0.08200  0.40880  0.85920  1.0000 -0.5660573301
O   O15       1.0  0.58200  0.90880  0.64080  1.0000 -0.5660573301
O   O16       1.0  0.41800  0.40880  0.35920  1.0000 -0.5660573301
O   O17       1.0  0.98000  0.06440  0.13610  1.0000 -0.5172149
O   O18       1.0  0.02000  0.56440  0.86390  1.0000 -0.5172149
O   O19       1.0  0.52000  0.06440  0.63610  1.0000 -0.5172149
O   O20       1.0  0.48000  0.56440  0.36390  1.0000 -0.5172149
O   O21       1.0  0.87200  0.39650  0.14190  1.0000 -0.5028384161
O   O22       1.0  0.12800  0.89650  0.85810  1.0000 -0.5028384161
O   O23       1.0  0.62800  0.39650  0.64190  1.0000 -0.5028384161
O   O24       1.0  0.37200  0.89650  0.35810  1.0000 -0.5028384161
O   O25       1.0  0.74870  0.95740  0.87890  1.0000 -0.543016052
O   O26       1.0  0.25130  0.45740  0.12110  1.0000 -0.543016052
O   O27       1.0  0.75130  0.95740  0.37890  1.0000 -0.543016052
O   O28       1.0  0.24870  0.45740  0.62110  1.0000 -0.543016052
O   O29       1.0  0.19660  0.05300  0.85250  1.0000 -0.6021354256
O   O30       1.0  0.80340  0.55300  0.14750  1.0000 -0.6021354256
O   O31       1.0  0.30340  0.05300  0.35250  1.0000 -0.6021354256
O   O32       1.0  0.69660  0.55300  0.64750  1.0000 -0.6021354256
