# DDEC6 charges by PACMAN v1.1 (https://github.com/mtap-research/PACMAN-charge/)
data_2011[Zn][rob]3[FSR]1
_chemical_formula_sum              "Zn8 H96 C152 N8 O40"
_cell_length_a       11.026
_cell_length_b       16.838
_cell_length_c       22.41
_cell_angle_alpha    90
_cell_angle_beta     90
_cell_angle_gamma    90

_symmetry_space_group_name_H-M    "P 1"
_symmetry_Int_Tables_number       1

loop_
  _symmetry_equiv_pos_as_xyz
  'x, y, z'

loop_
  _atom_site_type_symbol
  _atom_site_label
  _atom_site_symmetry_multiplicity
  _atom_site_fract_x
  _atom_site_fract_y
  _atom_site_fract_z
  _atom_site_occupancy
  _atom_site_charge
Zn  Zn1       1.0  0.09424  0.44146  0.00889  1.0000 0.8190996091
Zn  Zn2       1.0  0.90576  0.05854  0.00889  1.0000 0.8190996091
Zn  Zn3       1.0  0.09424  0.55854  0.49111  1.0000 0.8190996091
Zn  Zn4       1.0  0.90576  0.94146  0.49111  1.0000 0.8190996091
Zn  Zn5       1.0  0.90576  0.55854  0.99111  1.0000 0.8190996091
Zn  Zn6       1.0  0.09424  0.94146  0.99111  1.0000 0.8190996091
Zn  Zn7       1.0  0.90576  0.44146  0.50889  1.0000 0.8190996091
Zn  Zn8       1.0  0.09424  0.05854  0.50889  1.0000 0.8190996091
H   H1        1.0  0.31320  0.58410  0.13150  1.0000 0.1124569481
H   H2        1.0  0.68680  0.91590  0.13150  1.0000 0.1124569481
H   H3        1.0  0.31320  0.41590  0.36850  1.0000 0.1124569481
H   H4        1.0  0.68680  0.08410  0.36850  1.0000 0.1124569481
H   H5        1.0  0.68680  0.41590  0.86850  1.0000 0.1124569481
H   H6        1.0  0.31320  0.08410  0.86850  1.0000 0.1124569481
H   H7        1.0  0.68680  0.58410  0.63150  1.0000 0.1124569481
H   H8        1.0  0.31320  0.91590  0.63150  1.0000 0.1124569481
H   H9        1.0  0.41080  0.67110  0.19410  1.0000 0.1393347221
H   H10       1.0  0.58920  0.82890  0.19410  1.0000 0.1393347221
H   H11       1.0  0.41080  0.32890  0.30590  1.0000 0.1393347221
H   H12       1.0  0.58920  0.17110  0.30590  1.0000 0.1393347221
H   H13       1.0  0.58920  0.32890  0.80590  1.0000 0.1393347221
H   H14       1.0  0.41080  0.17110  0.80590  1.0000 0.1393347221
H   H15       1.0  0.58920  0.67110  0.69410  1.0000 0.1393347221
H   H16       1.0  0.41080  0.82890  0.69410  1.0000 0.1393347221
H   H17       1.0  0.19630  0.84660  0.13610  1.0000 0.1393347221
H   H18       1.0  0.80370  0.65340  0.13610  1.0000 0.1393347221
H   H19       1.0  0.19630  0.15340  0.36390  1.0000 0.1393347221
H   H20       1.0  0.80370  0.34660  0.36390  1.0000 0.1393347221
H   H21       1.0  0.80370  0.15340  0.86390  1.0000 0.1393347221
H   H22       1.0  0.19630  0.34660  0.86390  1.0000 0.1393347221
H   H23       1.0  0.80370  0.84660  0.63610  1.0000 0.1393347221
H   H24       1.0  0.19630  0.65340  0.63610  1.0000 0.1393347221
H   H25       1.0  0.10040  0.75950  0.07340  1.0000 0.1181502878
H   H26       1.0  0.89960  0.74050  0.07340  1.0000 0.1181502878
H   H27       1.0  0.10040  0.24050  0.42660  1.0000 0.1181502878
H   H28       1.0  0.89960  0.25950  0.42660  1.0000 0.1181502878
H   H29       1.0  0.89960  0.24050  0.92660  1.0000 0.1181502878
H   H30       1.0  0.10040  0.25950  0.92660  1.0000 0.1181502878
H   H31       1.0  0.89960  0.75950  0.57340  1.0000 0.1181502878
H   H32       1.0  0.10040  0.74050  0.57340  1.0000 0.1181502878
H   H33       1.0  0.42320  0.92820  0.28000  1.0000 0.1393347221
H   H34       1.0  0.57680  0.57180  0.28000  1.0000 0.1393347221
H   H35       1.0  0.42320  0.07180  0.22000  1.0000 0.1393347221
H   H36       1.0  0.57680  0.42820  0.22000  1.0000 0.1393347221
H   H37       1.0  0.57680  0.07180  0.72000  1.0000 0.1393347221
H   H38       1.0  0.42320  0.42820  0.72000  1.0000 0.1393347221
H   H39       1.0  0.57680  0.92820  0.78000  1.0000 0.1393347221
H   H40       1.0  0.42320  0.57180  0.78000  1.0000 0.1393347221
H   H41       1.0  0.31720  0.98460  0.35720  1.0000 0.1181502878
H   H42       1.0  0.68280  0.51540  0.35720  1.0000 0.1181502878
H   H43       1.0  0.31720  0.01540  0.14280  1.0000 0.1181502878
H   H44       1.0  0.68280  0.48460  0.14280  1.0000 0.1181502878
H   H45       1.0  0.68280  0.01540  0.64280  1.0000 0.1181502878
H   H46       1.0  0.31720  0.48460  0.64280  1.0000 0.1181502878
H   H47       1.0  0.68280  0.98460  0.85720  1.0000 0.1181502878
H   H48       1.0  0.31720  0.51540  0.85720  1.0000 0.1181502878
H   H49       1.0  0.05580  0.82340  0.33760  1.0000 0.1181502878
H   H50       1.0  0.94420  0.67660  0.33760  1.0000 0.1181502878
H   H51       1.0  0.05580  0.17660  0.16240  1.0000 0.1181502878
H   H52       1.0  0.94420  0.32340  0.16240  1.0000 0.1181502878
H   H53       1.0  0.94420  0.17660  0.66240  1.0000 0.1181502878
H   H54       1.0  0.05580  0.32340  0.66240  1.0000 0.1181502878
H   H55       1.0  0.94420  0.82340  0.83760  1.0000 0.1181502878
H   H56       1.0  0.05580  0.67660  0.83760  1.0000 0.1181502878
H   H57       1.0  0.15580  0.76960  0.25720  1.0000 0.1336924325
H   H58       1.0  0.84420  0.73040  0.25720  1.0000 0.1336924325
H   H59       1.0  0.15580  0.23040  0.24280  1.0000 0.1336924325
H   H60       1.0  0.84420  0.26960  0.24280  1.0000 0.1336924325
H   H61       1.0  0.84420  0.23040  0.74280  1.0000 0.1336924325
H   H62       1.0  0.15580  0.26960  0.74280  1.0000 0.1336924325
H   H63       1.0  0.84420  0.76960  0.75720  1.0000 0.1336924325
H   H64       1.0  0.15580  0.73040  0.75720  1.0000 0.1336924325
H   H65       1.0  0.35070  0.44660  0.98680  1.0000 0.1124569481
H   H66       1.0  0.64930  0.05340  0.98680  1.0000 0.1124569481
H   H67       1.0  0.35070  0.55340  0.51320  1.0000 0.1124569481
H   H68       1.0  0.64930  0.94660  0.51320  1.0000 0.1124569481
H   H69       1.0  0.64930  0.55340  0.01320  1.0000 0.1124569481
H   H70       1.0  0.35070  0.94660  0.01320  1.0000 0.1124569481
H   H71       1.0  0.64930  0.44660  0.48680  1.0000 0.1124569481
H   H72       1.0  0.35070  0.05340  0.48680  1.0000 0.1124569481
H   H73       1.0  0.52580  0.37150  0.99140  1.0000 0.1393347221
H   H74       1.0  0.47420  0.12850  0.99140  1.0000 0.1393347221
H   H75       1.0  0.52580  0.62850  0.50860  1.0000 0.1393347221
H   H76       1.0  0.47420  0.87150  0.50860  1.0000 0.1393347221
H   H77       1.0  0.47420  0.62850  0.00860  1.0000 0.1393347221
H   H78       1.0  0.52580  0.87150  0.00860  1.0000 0.1393347221
H   H79       1.0  0.47420  0.37150  0.49140  1.0000 0.1393347221
H   H80       1.0  0.52580  0.12850  0.49140  1.0000 0.1393347221
H   H81       1.0  0.32730  0.19720  0.06090  1.0000 0.1393347221
H   H82       1.0  0.67270  0.30280  0.06090  1.0000 0.1393347221
H   H83       1.0  0.32730  0.80280  0.43910  1.0000 0.1393347221
H   H84       1.0  0.67270  0.69720  0.43910  1.0000 0.1393347221
H   H85       1.0  0.67270  0.80280  0.93910  1.0000 0.1393347221
H   H86       1.0  0.32730  0.69720  0.93910  1.0000 0.1393347221
H   H87       1.0  0.67270  0.19720  0.56090  1.0000 0.1393347221
H   H88       1.0  0.32730  0.30280  0.56090  1.0000 0.1393347221
H   H89       1.0  0.16190  0.27940  0.05820  1.0000 0.1181502878
H   H90       1.0  0.83810  0.22060  0.05820  1.0000 0.1181502878
H   H91       1.0  0.16190  0.72060  0.44180  1.0000 0.1181502878
H   H92       1.0  0.83810  0.77940  0.44180  1.0000 0.1181502878
H   H93       1.0  0.83810  0.72060  0.94180  1.0000 0.1181502878
H   H94       1.0  0.16190  0.77940  0.94180  1.0000 0.1181502878
H   H95       1.0  0.83810  0.27940  0.55820  1.0000 0.1181502878
H   H96       1.0  0.16190  0.22060  0.55820  1.0000 0.1181502878
C   C1        1.0  0.12520  0.60340  0.06040  1.0000 0.5733694176
C   C2        1.0  0.87480  0.89660  0.06040  1.0000 0.5733694176
C   C3        1.0  0.12520  0.39660  0.43960  1.0000 0.5733694176
C   C4        1.0  0.87480  0.10340  0.43960  1.0000 0.5733694176
C   C5        1.0  0.87480  0.39660  0.93960  1.0000 0.5733694176
C   C6        1.0  0.12520  0.10340  0.93960  1.0000 0.5733694176
C   C7        1.0  0.87480  0.60340  0.56040  1.0000 0.5733694176
C   C8        1.0  0.12520  0.89660  0.56040  1.0000 0.5733694176
C   C9        1.0  0.19300  0.66120  0.09610  1.0000 -0.0788730418
C   C10       1.0  0.80700  0.83880  0.09610  1.0000 -0.0788730418
C   C11       1.0  0.19300  0.33880  0.40390  1.0000 -0.0788730418
C   C12       1.0  0.80700  0.16120  0.40390  1.0000 -0.0788730418
C   C13       1.0  0.80700  0.33880  0.90390  1.0000 -0.0788730418
C   C14       1.0  0.19300  0.16120  0.90390  1.0000 -0.0788730418
C   C15       1.0  0.80700  0.66120  0.59610  1.0000 -0.0788730418
C   C16       1.0  0.19300  0.83880  0.59610  1.0000 -0.0788730418
C   C17       1.0  0.28830  0.63680  0.13280  1.0000 -0.091036021
C   C18       1.0  0.71170  0.86320  0.13280  1.0000 -0.091036021
C   C19       1.0  0.28830  0.36320  0.36720  1.0000 -0.091036021
C   C20       1.0  0.71170  0.13680  0.36720  1.0000 -0.091036021
C   C21       1.0  0.71170  0.36320  0.86720  1.0000 -0.091036021
C   C22       1.0  0.28830  0.13680  0.86720  1.0000 -0.091036021
C   C23       1.0  0.71170  0.63680  0.63280  1.0000 -0.091036021
C   C24       1.0  0.28830  0.86320  0.63280  1.0000 -0.091036021
C   C25       1.0  0.34630  0.68850  0.17070  1.0000 -0.2058635494
C   C26       1.0  0.65370  0.81150  0.17070  1.0000 -0.2058635494
C   C27       1.0  0.34630  0.31150  0.32930  1.0000 -0.2058635494
C   C28       1.0  0.65370  0.18850  0.32930  1.0000 -0.2058635494
C   C29       1.0  0.65370  0.31150  0.82930  1.0000 -0.2058635494
C   C30       1.0  0.34630  0.18850  0.82930  1.0000 -0.2058635494
C   C31       1.0  0.65370  0.68850  0.67070  1.0000 -0.2058635494
C   C32       1.0  0.34630  0.81150  0.67070  1.0000 -0.2058635494
C   C33       1.0  0.30820  0.76610  0.17370  1.0000 0.2429252754
C   C34       1.0  0.69180  0.73390  0.17370  1.0000 0.2429252754
C   C35       1.0  0.30820  0.23390  0.32630  1.0000 0.2429252754
C   C36       1.0  0.69180  0.26610  0.32630  1.0000 0.2429252754
C   C37       1.0  0.69180  0.23390  0.82630  1.0000 0.2429252754
C   C38       1.0  0.30820  0.26610  0.82630  1.0000 0.2429252754
C   C39       1.0  0.69180  0.76610  0.67370  1.0000 0.2429252754
C   C40       1.0  0.30820  0.73390  0.67370  1.0000 0.2429252754
C   C41       1.0  0.21820  0.79330  0.13590  1.0000 -0.2058635494
C   C42       1.0  0.78180  0.70670  0.13590  1.0000 -0.2058635494
C   C43       1.0  0.21820  0.20670  0.36410  1.0000 -0.2058635494
C   C44       1.0  0.78180  0.29330  0.36410  1.0000 -0.2058635494
C   C45       1.0  0.78180  0.20670  0.86410  1.0000 -0.2058635494
C   C46       1.0  0.21820  0.29330  0.86410  1.0000 -0.2058635494
C   C47       1.0  0.78180  0.79330  0.63590  1.0000 -0.2058635494
C   C48       1.0  0.21820  0.70670  0.63590  1.0000 -0.2058635494
C   C49       1.0  0.16170  0.74100  0.09830  1.0000 -0.0788730418
C   C50       1.0  0.83830  0.75900  0.09830  1.0000 -0.0788730418
C   C51       1.0  0.16170  0.25900  0.40170  1.0000 -0.0788730418
C   C52       1.0  0.83830  0.24100  0.40170  1.0000 -0.0788730418
C   C53       1.0  0.83830  0.25900  0.90170  1.0000 -0.0788730418
C   C54       1.0  0.16170  0.24100  0.90170  1.0000 -0.0788730418
C   C55       1.0  0.83830  0.74100  0.59830  1.0000 -0.0788730418
C   C56       1.0  0.16170  0.75900  0.59830  1.0000 -0.0788730418
C   C57       1.0  0.29770  0.84580  0.25930  1.0000 0.2567237358
C   C58       1.0  0.70230  0.65420  0.25930  1.0000 0.2567237358
C   C59       1.0  0.29770  0.15420  0.24070  1.0000 0.2567237358
C   C60       1.0  0.70230  0.34580  0.24070  1.0000 0.2567237358
C   C61       1.0  0.70230  0.15420  0.74070  1.0000 0.2567237358
C   C62       1.0  0.29770  0.34580  0.74070  1.0000 0.2567237358
C   C63       1.0  0.70230  0.84580  0.75930  1.0000 0.2567237358
C   C64       1.0  0.29770  0.65420  0.75930  1.0000 0.2567237358
C   C65       1.0  0.34740  0.90840  0.29060  1.0000 -0.2058635494
C   C66       1.0  0.65260  0.59160  0.29060  1.0000 -0.2058635494
C   C67       1.0  0.34740  0.09160  0.20940  1.0000 -0.2058635494
C   C68       1.0  0.65260  0.40840  0.20940  1.0000 -0.2058635494
C   C69       1.0  0.65260  0.09160  0.70940  1.0000 -0.2058635494
C   C70       1.0  0.34740  0.40840  0.70940  1.0000 -0.2058635494
C   C71       1.0  0.65260  0.90840  0.79060  1.0000 -0.2058635494
C   C72       1.0  0.34740  0.59160  0.79060  1.0000 -0.2058635494
C   C73       1.0  0.28490  0.94120  0.33700  1.0000 -0.0955975165
C   C74       1.0  0.71510  0.55880  0.33700  1.0000 -0.0955975165
C   C75       1.0  0.28490  0.05880  0.16300  1.0000 -0.0955975165
C   C76       1.0  0.71510  0.44120  0.16300  1.0000 -0.0955975165
C   C77       1.0  0.71510  0.05880  0.66300  1.0000 -0.0955975165
C   C78       1.0  0.28490  0.44120  0.66300  1.0000 -0.0955975165
C   C79       1.0  0.71510  0.94120  0.83700  1.0000 -0.0955975165
C   C80       1.0  0.28490  0.55880  0.83700  1.0000 -0.0955975165
C   C81       1.0  0.17380  0.91060  0.35460  1.0000 -0.0514365842
C   C82       1.0  0.82620  0.58940  0.35460  1.0000 -0.0514365842
C   C83       1.0  0.17380  0.08940  0.14540  1.0000 -0.0514365842
C   C84       1.0  0.82620  0.41060  0.14540  1.0000 -0.0514365842
C   C85       1.0  0.82620  0.08940  0.64540  1.0000 -0.0514365842
C   C86       1.0  0.17380  0.41060  0.64540  1.0000 -0.0514365842
C   C87       1.0  0.82620  0.91060  0.85460  1.0000 -0.0514365842
C   C88       1.0  0.17380  0.58940  0.85460  1.0000 -0.0514365842
C   C89       1.0  0.12850  0.84570  0.32500  1.0000 -0.091036021
C   C90       1.0  0.87150  0.65430  0.32500  1.0000 -0.091036021
C   C91       1.0  0.12850  0.15430  0.17500  1.0000 -0.091036021
C   C92       1.0  0.87150  0.34570  0.17500  1.0000 -0.091036021
C   C93       1.0  0.87150  0.15430  0.67500  1.0000 -0.091036021
C   C94       1.0  0.12850  0.34570  0.67500  1.0000 -0.091036021
C   C95       1.0  0.87150  0.84570  0.82500  1.0000 -0.091036021
C   C96       1.0  0.12850  0.65430  0.82500  1.0000 -0.091036021
C   C97       1.0  0.18830  0.81300  0.27720  1.0000 -0.2192704526
C   C98       1.0  0.81170  0.68700  0.27720  1.0000 -0.2192704526
C   C99       1.0  0.18830  0.18700  0.22280  1.0000 -0.2192704526
C   C100      1.0  0.81170  0.31300  0.22280  1.0000 -0.2192704526
C   C101      1.0  0.81170  0.18700  0.72280  1.0000 -0.2192704526
C   C102      1.0  0.18830  0.31300  0.72280  1.0000 -0.2192704526
C   C103      1.0  0.81170  0.81300  0.77720  1.0000 -0.2192704526
C   C104      1.0  0.18830  0.68700  0.77720  1.0000 -0.2192704526
C   C105      1.0  0.10390  0.94570  0.40570  1.0000 0.5754951577
C   C106      1.0  0.89610  0.55430  0.40570  1.0000 0.5754951577
C   C107      1.0  0.10390  0.05430  0.09430  1.0000 0.5754951577
C   C108      1.0  0.89610  0.44570  0.09430  1.0000 0.5754951577
C   C109      1.0  0.89610  0.05430  0.59430  1.0000 0.5754951577
C   C110      1.0  0.10390  0.44570  0.59430  1.0000 0.5754951577
C   C111      1.0  0.89610  0.94570  0.90570  1.0000 0.5754951577
C   C112      1.0  0.10390  0.55430  0.90570  1.0000 0.5754951577
C   C113      1.0  0.34620  0.39550  0.00240  1.0000 0.0903643074
C   C114      1.0  0.65380  0.10450  0.00240  1.0000 0.0903643074
C   C115      1.0  0.34620  0.60450  0.49760  1.0000 0.0903643074
C   C116      1.0  0.65380  0.89550  0.49760  1.0000 0.0903643074
C   C117      1.0  0.65380  0.60450  0.99760  1.0000 0.0903643074
C   C118      1.0  0.34620  0.89550  0.99760  1.0000 0.0903643074
C   C119      1.0  0.65380  0.39550  0.50240  1.0000 0.0903643074
C   C120      1.0  0.34620  0.10450  0.50240  1.0000 0.0903643074
C   C121      1.0  0.45240  0.35120  0.00500  1.0000 -0.1968482674
C   C122      1.0  0.54760  0.14880  0.00500  1.0000 -0.1968482674
C   C123      1.0  0.45240  0.64880  0.49500  1.0000 -0.1968482674
C   C124      1.0  0.54760  0.85120  0.49500  1.0000 -0.1968482674
C   C125      1.0  0.54760  0.64880  0.99500  1.0000 -0.1968482674
C   C126      1.0  0.45240  0.85120  0.99500  1.0000 -0.1968482674
C   C127      1.0  0.54760  0.35120  0.50500  1.0000 -0.1968482674
C   C128      1.0  0.45240  0.14880  0.50500  1.0000 -0.1968482674
C   C129      1.0  0.44380  0.27480  0.02890  1.0000 0.1124569481
C   C130      1.0  0.55620  0.22520  0.02890  1.0000 0.1124569481
C   C131      1.0  0.44380  0.72520  0.47110  1.0000 0.1124569481
C   C132      1.0  0.55620  0.77480  0.47110  1.0000 0.1124569481
C   C133      1.0  0.55620  0.72520  0.97110  1.0000 0.1124569481
C   C134      1.0  0.44380  0.77480  0.97110  1.0000 0.1124569481
C   C135      1.0  0.55620  0.27480  0.52890  1.0000 0.1124569481
C   C136      1.0  0.44380  0.22520  0.52890  1.0000 0.1124569481
C   C137      1.0  0.33560  0.24870  0.04650  1.0000 -0.1760462613
C   C138      1.0  0.66440  0.25130  0.04650  1.0000 -0.1760462613
C   C139      1.0  0.33560  0.75130  0.45350  1.0000 -0.1760462613
C   C140      1.0  0.66440  0.74870  0.45350  1.0000 -0.1760462613
C   C141      1.0  0.66440  0.75130  0.95350  1.0000 -0.1760462613
C   C142      1.0  0.33560  0.74870  0.95350  1.0000 -0.1760462613
C   C143      1.0  0.66440  0.24870  0.54650  1.0000 -0.1760462613
C   C144      1.0  0.33560  0.25130  0.54650  1.0000 -0.1760462613
C   C145      1.0  0.23550  0.29790  0.04340  1.0000 0.0833145476
C   C146      1.0  0.76450  0.20210  0.04340  1.0000 0.0833145476
C   C147      1.0  0.23550  0.70210  0.45660  1.0000 0.0833145476
C   C148      1.0  0.76450  0.79790  0.45660  1.0000 0.0833145476
C   C149      1.0  0.76450  0.70210  0.95660  1.0000 0.0833145476
C   C150      1.0  0.23550  0.79790  0.95660  1.0000 0.0833145476
C   C151      1.0  0.76450  0.29790  0.54340  1.0000 0.0833145476
C   C152      1.0  0.23550  0.20210  0.54340  1.0000 0.0833145476
N   N1        1.0  0.23990  0.36990  0.02050  1.0000 -0.1968482674
N   N2        1.0  0.76010  0.13010  0.02050  1.0000 -0.1968482674
N   N3        1.0  0.23990  0.63010  0.47950  1.0000 -0.1968482674
N   N4        1.0  0.76010  0.86990  0.47950  1.0000 -0.1968482674
N   N5        1.0  0.76010  0.63010  0.97950  1.0000 -0.1968482674
N   N6        1.0  0.23990  0.86990  0.97950  1.0000 -0.1968482674
N   N7        1.0  0.76010  0.36990  0.52050  1.0000 -0.1968482674
N   N8        1.0  0.23990  0.13010  0.52050  1.0000 -0.1968482674
O   O1        1.0  0.16820  0.53490  0.05350  1.0000 -0.5480105142
O   O2        1.0  0.83180  0.96510  0.05350  1.0000 -0.5480105142
O   O3        1.0  0.16820  0.46510  0.44650  1.0000 -0.5480105142
O   O4        1.0  0.83180  0.03490  0.44650  1.0000 -0.5480105142
O   O5        1.0  0.83180  0.46510  0.94650  1.0000 -0.5480105142
O   O6        1.0  0.16820  0.03490  0.94650  1.0000 -0.5480105142
O   O7        1.0  0.83180  0.53490  0.55350  1.0000 -0.5480105142
O   O8        1.0  0.16820  0.96510  0.55350  1.0000 -0.5480105142
O   O9        1.0  0.02480  0.62570  0.03810  1.0000 -0.5480105142
O   O10       1.0  0.97520  0.87430  0.03810  1.0000 -0.5480105142
O   O11       1.0  0.02480  0.37430  0.46190  1.0000 -0.5480105142
O   O12       1.0  0.97520  0.12570  0.46190  1.0000 -0.5480105142
O   O13       1.0  0.97520  0.37430  0.96190  1.0000 -0.5480105142
O   O14       1.0  0.02480  0.12570  0.96190  1.0000 -0.5480105142
O   O15       1.0  0.97520  0.62570  0.53810  1.0000 -0.5480105142
O   O16       1.0  0.02480  0.87430  0.53810  1.0000 -0.5480105142
O   O17       1.0  0.14870  0.00510  0.43170  1.0000 -0.5480105142
O   O18       1.0  0.85130  0.49490  0.43170  1.0000 -0.5480105142
O   O19       1.0  0.14870  0.99490  0.06830  1.0000 -0.5480105142
O   O20       1.0  0.85130  0.50510  0.06830  1.0000 -0.5480105142
O   O21       1.0  0.85130  0.99490  0.56830  1.0000 -0.5480105142
O   O22       1.0  0.14870  0.50510  0.56830  1.0000 -0.5480105142
O   O23       1.0  0.85130  0.00510  0.93170  1.0000 -0.5480105142
O   O24       1.0  0.14870  0.49490  0.93170  1.0000 -0.5480105142
O   O25       1.0  0.00450  0.91490  0.41830  1.0000 -0.5250404139
O   O26       1.0  0.99550  0.58510  0.41830  1.0000 -0.5247035285
O   O27       1.0  0.00450  0.08510  0.08170  1.0000 -0.5247035285
O   O28       1.0  0.99550  0.41490  0.08170  1.0000 -0.5247035285
O   O29       1.0  0.99550  0.08510  0.58170  1.0000 -0.5247035285
O   O30       1.0  0.00450  0.41490  0.58170  1.0000 -0.5250404139
O   O31       1.0  0.99550  0.91490  0.91830  1.0000 -0.5250404139
O   O32       1.0  0.00450  0.58510  0.91830  1.0000 -0.5250404139
O   O33       1.0  0.36490  0.81690  0.21230  1.0000 -0.2192704526
O   O34       1.0  0.63510  0.68310  0.21230  1.0000 -0.2192704526
O   O35       1.0  0.36490  0.18310  0.28770  1.0000 -0.2192704526
O   O36       1.0  0.63510  0.31690  0.28770  1.0000 -0.2192704526
O   O37       1.0  0.63510  0.18310  0.78770  1.0000 -0.2192704526
O   O38       1.0  0.36490  0.31690  0.78770  1.0000 -0.2192704526
O   O39       1.0  0.63510  0.81690  0.71230  1.0000 -0.2192704526
O   O40       1.0  0.36490  0.68310  0.71230  1.0000 -0.2192704526
