# DDEC6 charges by PACMAN v1.1 (https://github.com/mtap-research/PACMAN-charge/)
data_2015[Zn][dia]3[ASR]8
_chemical_formula_sum              "Zn4 H72 C72 N16 O20"
_cell_length_a       5.626
_cell_length_b       17.655
_cell_length_c       21.733
_cell_angle_alpha    90
_cell_angle_beta     90
_cell_angle_gamma    90

_symmetry_space_group_name_H-M    "P 1"
_symmetry_Int_Tables_number       1

loop_
  _symmetry_equiv_pos_as_xyz
  'x, y, z'

loop_
  _atom_site_type_symbol
  _atom_site_label
  _atom_site_symmetry_multiplicity
  _atom_site_fract_x
  _atom_site_fract_y
  _atom_site_fract_z
  _atom_site_occupancy
  _atom_site_charge
Zn  Zn1       1.0  0.15468  0.82758  0.29595  1.0000 0.7420094025
Zn  Zn2       1.0  0.15468  0.17242  0.70405  1.0000 0.7420094025
Zn  Zn3       1.0  0.84532  0.67242  0.79595  1.0000 0.7420094025
Zn  Zn4       1.0  0.84532  0.32758  0.20405  1.0000 0.7420094025
H   H1        1.0  0.71840  0.89700  0.35250  1.0000 0.1100320071
H   H2        1.0  0.71840  0.10300  0.64750  1.0000 0.1100320071
H   H3        1.0  0.28160  0.60300  0.85250  1.0000 0.1100320071
H   H4        1.0  0.28160  0.39700  0.14750  1.0000 0.1100320071
H   H5        1.0  0.47800  0.88350  0.43650  1.0000 0.1406578284
H   H6        1.0  0.47800  0.11650  0.56350  1.0000 0.1406578284
H   H7        1.0  0.52200  0.61650  0.93650  1.0000 0.1406578284
H   H8        1.0  0.52200  0.38350  0.06350  1.0000 0.1406578284
H   H9        1.0  0.14340  0.73780  0.41200  1.0000 0.1100320071
H   H10       1.0  0.14340  0.26220  0.58800  1.0000 0.1100320071
H   H11       1.0  0.85660  0.76220  0.91200  1.0000 0.1100320071
H   H12       1.0  0.85660  0.23780  0.08800  1.0000 0.1100320071
H   H13       1.0  0.90270  0.71620  0.49520  1.0000 0.13090949
H   H14       1.0  0.90270  0.28380  0.50480  1.0000 0.13090949
H   H15       1.0  0.09730  0.78380  0.99520  1.0000 0.13090949
H   H16       1.0  0.09730  0.21620  0.00480  1.0000 0.13090949
H   H17       1.0  0.37420  0.82280  0.53180  1.0000 0.1201093357
H   H18       1.0  0.37420  0.17720  0.46820  1.0000 0.1201093357
H   H19       1.0  0.62580  0.67720  0.03180  1.0000 0.1201093357
H   H20       1.0  0.62580  0.32280  0.96820  1.0000 0.1201093357
H   H21       1.0  0.61870  0.69460  0.55940  1.0000 0.1100320071
H   H22       1.0  0.61870  0.30540  0.44060  1.0000 0.1100320071
H   H23       1.0  0.38130  0.80540  0.05940  1.0000 0.1100320071
H   H24       1.0  0.38130  0.19460  0.94060  1.0000 0.1100320071
H   H25       1.0  0.10060  0.80410  0.60470  1.0000 0.13090949
H   H26       1.0  0.10060  0.19590  0.39530  1.0000 0.13090949
H   H27       1.0  0.89940  0.69590  0.10470  1.0000 0.13090949
H   H28       1.0  0.89940  0.30410  0.89530  1.0000 0.13090949
H   H29       1.0  0.87030  0.78010  0.68950  1.0000 0.1100320071
H   H30       1.0  0.87030  0.21990  0.31050  1.0000 0.1100320071
H   H31       1.0  0.12970  0.71990  0.18950  1.0000 0.1100320071
H   H32       1.0  0.12970  0.28010  0.81050  1.0000 0.1100320071
H   H33       1.0  0.51590  0.62920  0.65170  1.0000 0.1406578284
H   H34       1.0  0.51590  0.37080  0.34830  1.0000 0.1406578284
H   H35       1.0  0.48410  0.87080  0.15170  1.0000 0.1406578284
H   H36       1.0  0.48410  0.12920  0.84830  1.0000 0.1406578284
H   H37       1.0  0.26970  0.60780  0.73460  1.0000 0.1201093357
H   H38       1.0  0.26970  0.39220  0.26540  1.0000 0.1201093357
H   H39       1.0  0.73030  0.89220  0.23460  1.0000 0.1201093357
H   H40       1.0  0.73030  0.10780  0.76540  1.0000 0.1201093357
H   H41       1.0  0.20900  0.09620  0.28820  1.0000 0.0893145439
H   H42       1.0  0.20900  0.90380  0.71180  1.0000 0.0893145439
H   H43       1.0  0.79100  0.40380  0.78820  1.0000 0.0893145439
H   H44       1.0  0.79100  0.59620  0.21180  1.0000 0.0893145439
H   H45       1.0  0.50530  0.03700  0.19450  1.0000 0.1100320071
H   H46       1.0  0.50530  0.96300  0.80550  1.0000 0.1100320071
H   H47       1.0  0.49470  0.46300  0.69450  1.0000 0.1100320071
H   H48       1.0  0.49470  0.53700  0.30550  1.0000 0.1100320071
H   H49       1.0  0.23000  0.03790  0.18400  1.0000 0.1100320071
H   H50       1.0  0.23000  0.96210  0.81600  1.0000 0.1100320071
H   H51       1.0  0.77000  0.46210  0.68400  1.0000 0.1100320071
H   H52       1.0  0.77000  0.53790  0.31600  1.0000 0.1100320071
H   H53       1.0  0.24700  0.17250  0.20130  1.0000 0.13090949
H   H54       1.0  0.24700  0.82750  0.79870  1.0000 0.13090949
H   H55       1.0  0.75300  0.32750  0.70130  1.0000 0.13090949
H   H56       1.0  0.75300  0.67250  0.29870  1.0000 0.13090949
H   H57       1.0  0.34760  0.14380  0.13840  1.0000 0.1201093357
H   H58       1.0  0.34760  0.85620  0.86160  1.0000 0.1201093357
H   H59       1.0  0.65240  0.35620  0.63840  1.0000 0.1201093357
H   H60       1.0  0.65240  0.64380  0.36160  1.0000 0.1201093357
H   H61       1.0  0.66870  0.07630  0.28940  1.0000 0.2786338639
H   H62       1.0  0.66870  0.92370  0.71060  1.0000 0.2786338639
H   H63       1.0  0.33130  0.42370  0.78940  1.0000 0.2786338639
H   H64       1.0  0.33130  0.57630  0.21060  1.0000 0.2786338639
H   H65       1.0  0.76460  0.05770  0.43760  1.0000 0.3253828001
H   H66       1.0  0.76460  0.94230  0.56240  1.0000 0.3253828001
H   H67       1.0  0.23540  0.44230  0.93760  1.0000 0.3253828001
H   H68       1.0  0.23540  0.55770  0.06240  1.0000 0.3253828001
H   H69       1.0  0.88070  0.06130  0.37610  1.0000 0.3155902189
H   H70       1.0  0.88070  0.93870  0.62390  1.0000 0.3155902189
H   H71       1.0  0.11930  0.43870  0.87610  1.0000 0.3155902189
H   H72       1.0  0.11930  0.56130  0.12390  1.0000 0.3155902189
C   C1        1.0  0.75640  0.86050  0.38180  1.0000 0.1100320071
C   C2        1.0  0.75640  0.13950  0.61820  1.0000 0.1100320071
C   C3        1.0  0.24360  0.63950  0.88180  1.0000 0.1100320071
C   C4        1.0  0.24360  0.36050  0.11820  1.0000 0.1100320071
C   C5        1.0  0.60950  0.85210  0.43181  1.0000 -0.199456241
C   C6        1.0  0.60950  0.14790  0.56819  1.0000 -0.199456241
C   C7        1.0  0.39050  0.64790  0.93181  1.0000 -0.199456241
C   C8        1.0  0.39050  0.35210  0.06819  1.0000 -0.199456241
C   C9        1.0  0.00520  0.76630  0.41647  1.0000 0.0893145439
C   C10       1.0  0.00520  0.23370  0.58353  1.0000 0.0893145439
C   C11       1.0  0.99480  0.73370  0.91647  1.0000 0.0893145439
C   C12       1.0  0.99480  0.26630  0.08353  1.0000 0.0893145439
C   C13       1.0  0.86290  0.75350  0.46677  1.0000 -0.199456241
C   C14       1.0  0.86290  0.24650  0.53323  1.0000 -0.199456241
C   C15       1.0  0.13710  0.74650  0.96677  1.0000 -0.199456241
C   C16       1.0  0.13710  0.25350  0.03323  1.0000 -0.199456241
C   C17       1.0  0.65640  0.79730  0.47493  1.0000 0.1533584457
C   C18       1.0  0.65640  0.20270  0.52507  1.0000 0.1533584457
C   C19       1.0  0.34360  0.70270  0.97493  1.0000 0.1533584457
C   C20       1.0  0.34360  0.29730  0.02507  1.0000 0.1533584457
C   C21       1.0  0.49280  0.78670  0.52639  1.0000 -0.1471424389
C   C22       1.0  0.49280  0.21330  0.47361  1.0000 -0.1471424389
C   C23       1.0  0.50720  0.71330  0.02639  1.0000 -0.1471424389
C   C24       1.0  0.50720  0.28670  0.97361  1.0000 -0.1471424389
C   C25       1.0  0.50010  0.73060  0.56530  1.0000 -0.1471424389
C   C26       1.0  0.50010  0.26940  0.43470  1.0000 -0.1471424389
C   C27       1.0  0.49990  0.76940  0.06530  1.0000 -0.1471424389
C   C28       1.0  0.49990  0.23060  0.93470  1.0000 -0.1471424389
C   C29       1.0  0.33760  0.71870  0.61804  1.0000 0.1626666498
C   C30       1.0  0.33760  0.28130  0.38196  1.0000 0.1626666498
C   C31       1.0  0.66240  0.78130  0.11804  1.0000 0.1626666498
C   C32       1.0  0.66240  0.21870  0.88196  1.0000 0.1626666498
C   C33       1.0  0.13880  0.76400  0.63061  1.0000 -0.199456241
C   C34       1.0  0.13880  0.23600  0.36939  1.0000 -0.199456241
C   C35       1.0  0.86120  0.73600  0.13061  1.0000 -0.199456241
C   C36       1.0  0.86120  0.26400  0.86939  1.0000 -0.199456241
C   C37       1.0  0.99990  0.74900  0.68140  1.0000 0.0795484197
C   C38       1.0  0.99990  0.25100  0.31860  1.0000 0.0795484197
C   C39       1.0  0.00010  0.75100  0.18140  1.0000 0.0795484197
C   C40       1.0  0.00010  0.24900  0.81860  1.0000 0.0795484197
C   C41       1.0  0.38470  0.66030  0.65810  1.0000 -0.1949697125
C   C42       1.0  0.38470  0.33970  0.34190  1.0000 -0.1949697125
C   C43       1.0  0.61530  0.83970  0.15810  1.0000 -0.1949697125
C   C44       1.0  0.61530  0.16030  0.84190  1.0000 -0.1949697125
C   C45       1.0  0.23560  0.64770  0.70820  1.0000 0.1100320071
C   C46       1.0  0.23560  0.35230  0.29180  1.0000 0.1100320071
C   C47       1.0  0.76440  0.85230  0.20820  1.0000 0.1100320071
C   C48       1.0  0.76440  0.14770  0.79180  1.0000 0.1100320071
C   C49       1.0  0.20090  0.98005  0.28692  1.0000 0.5572398465
C   C50       1.0  0.20090  0.01995  0.71308  1.0000 0.5572398465
C   C51       1.0  0.79910  0.51995  0.78692  1.0000 0.5572398465
C   C52       1.0  0.79910  0.48005  0.21308  1.0000 0.5572398465
C   C53       1.0  0.31920  0.05614  0.27543  1.0000 0.0058270676
C   C54       1.0  0.31920  0.94386  0.72457  1.0000 0.0058270676
C   C55       1.0  0.68080  0.44386  0.77543  1.0000 0.0058270676
C   C56       1.0  0.68080  0.55614  0.22457  1.0000 0.0058270676
C   C57       1.0  0.35940  0.06316  0.20520  1.0000 -0.1729955624
C   C58       1.0  0.35940  0.93684  0.79480  1.0000 -0.1729955624
C   C59       1.0  0.64060  0.43684  0.70520  1.0000 -0.1729955624
C   C60       1.0  0.64060  0.56316  0.29480  1.0000 -0.1729955624
C   C61       1.0  0.37490  0.14380  0.18250  1.0000 -0.3202445719
C   C62       1.0  0.37490  0.85620  0.81750  1.0000 -0.3202445719
C   C63       1.0  0.62510  0.35620  0.68250  1.0000 -0.3202445719
C   C64       1.0  0.62510  0.64380  0.31750  1.0000 -0.3202445719
C   C65       1.0  0.60660  0.18510  0.19490  1.0000 0.5986089718
C   C66       1.0  0.60660  0.81490  0.80510  1.0000 0.5986089718
C   C67       1.0  0.39340  0.31490  0.69490  1.0000 0.5986089718
C   C68       1.0  0.39340  0.68510  0.30510  1.0000 0.5986089718
C   C69       1.0  0.53820  0.05910  0.37086  1.0000 0.642552973
C   C70       1.0  0.53820  0.94090  0.62914  1.0000 0.642552973
C   C71       1.0  0.46180  0.44090  0.87086  1.0000 0.642552973
C   C72       1.0  0.46180  0.55910  0.12914  1.0000 0.642552973
N   N1        1.0  0.95260  0.81837  0.37334  1.0000 -0.2396669619
N   N2        1.0  0.95260  0.18163  0.62666  1.0000 -0.2396669619
N   N3        1.0  0.04740  0.68163  0.87334  1.0000 -0.2396669619
N   N4        1.0  0.04740  0.31837  0.12666  1.0000 -0.2396669619
N   N5        1.0  0.04540  0.69084  0.71967  1.0000 -0.2396669619
N   N6        1.0  0.04540  0.30916  0.28033  1.0000 -0.2396669619
N   N7        1.0  0.95460  0.80916  0.21967  1.0000 -0.2396669619
N   N8        1.0  0.95460  0.19084  0.78033  1.0000 -0.2396669619
N   N9        1.0  0.53910  0.06606  0.30870  1.0000 -0.4259491849
N   N10       1.0  0.53910  0.93394  0.69130  1.0000 -0.4259491849
N   N11       1.0  0.46090  0.43394  0.80870  1.0000 -0.4259491849
N   N12       1.0  0.46090  0.56606  0.19130  1.0000 -0.4259491849
N   N13       1.0  0.75400  0.05940  0.39816  1.0000 -0.6522520769
N   N14       1.0  0.75400  0.94060  0.60184  1.0000 -0.6522520769
N   N15       1.0  0.24600  0.44060  0.89816  1.0000 -0.6522520769
N   N16       1.0  0.24600  0.55940  0.10184  1.0000 -0.6522520769
O   O1        1.0  0.33740  0.92215  0.29063  1.0000 -0.5350027669
O   O2        1.0  0.33740  0.07785  0.70937  1.0000 -0.5345367182
O   O3        1.0  0.66260  0.57785  0.79063  1.0000 -0.5350027669
O   O4        1.0  0.66260  0.42215  0.20937  1.0000 -0.5350027669
O   O5        1.0  0.98250  0.97694  0.28949  1.0000 -0.5624640051
O   O6        1.0  0.98250  0.02306  0.71051  1.0000 -0.5624640051
O   O7        1.0  0.01750  0.52306  0.78949  1.0000 -0.5624640051
O   O8        1.0  0.01750  0.47694  0.21051  1.0000 -0.5624640051
O   O9        1.0  0.58360  0.25646  0.20149  1.0000 -0.5660981524
O   O10       1.0  0.58360  0.74354  0.79851  1.0000 -0.5660981524
O   O11       1.0  0.41640  0.24354  0.70149  1.0000 -0.5660981524
O   O12       1.0  0.41640  0.75646  0.29851  1.0000 -0.5660981524
O   O13       1.0  0.79630  0.15180  0.19541  1.0000 -0.5624640051
O   O14       1.0  0.79630  0.84820  0.80459  1.0000 -0.5624640051
O   O15       1.0  0.20370  0.34820  0.69541  1.0000 -0.5624640051
O   O16       1.0  0.20370  0.65180  0.30459  1.0000 -0.5624640051
O   O17       1.0  0.34810  0.05641  0.39972  1.0000 -0.5903648871
O   O18       1.0  0.34810  0.94359  0.60028  1.0000 -0.5903648871
O   O19       1.0  0.65190  0.44359  0.89972  1.0000 -0.5903648871
O   O20       1.0  0.65190  0.55641  0.10028  1.0000 -0.5903648871
