# DDEC6 charges by PACMAN v1.1 (https://github.com/mtap-research/PACMAN-charge/)
data_2023[Fe][nan]3[FSR]2
_chemical_formula_sum              "Fe24 H32 C96 O80 F56"
_cell_length_a       16.8365
_cell_length_b       18.0784
_cell_length_c       20.746
_cell_angle_alpha    90
_cell_angle_beta     90
_cell_angle_gamma    90

_symmetry_space_group_name_H-M    "P 1"
_symmetry_Int_Tables_number       1

loop_
  _symmetry_equiv_pos_as_xyz
  'x, y, z'

loop_
  _atom_site_type_symbol
  _atom_site_label
  _atom_site_symmetry_multiplicity
  _atom_site_fract_x
  _atom_site_fract_y
  _atom_site_fract_z
  _atom_site_occupancy
  _atom_site_charge
Fe  Fe1       1.0  0.49149  0.20944  0.00361  1.0000 1.337126118
Fe  Fe2       1.0  0.00851  0.79056  0.50361  1.0000 1.337126118
Fe  Fe3       1.0  0.99149  0.29056  0.99639  1.0000 1.337126118
Fe  Fe4       1.0  0.50851  0.70944  0.49639  1.0000 1.337126118
Fe  Fe5       1.0  0.48832  0.20657  0.50497  1.0000 1.3277783812
Fe  Fe6       1.0  0.01168  0.79343  0.00497  1.0000 1.3277783812
Fe  Fe7       1.0  0.98832  0.29343  0.49503  1.0000 1.3277783812
Fe  Fe8       1.0  0.51168  0.70657  0.99503  1.0000 1.3277783812
Fe  Fe9       1.0  0.54089  0.16893  0.34416  1.0000 1.5890586794
Fe  Fe10      1.0  0.95911  0.83107  0.84416  1.0000 1.5890586794
Fe  Fe11      1.0  0.04089  0.33107  0.65584  1.0000 1.5890586794
Fe  Fe12      1.0  0.45911  0.66893  0.15584  1.0000 1.5817668856
Fe  Fe13      1.0  0.54351  0.23717  0.16653  1.0000 1.5817668856
Fe  Fe14      1.0  0.95649  0.76283  0.66653  1.0000 1.5817668856
Fe  Fe15      1.0  0.04351  0.26283  0.83347  1.0000 1.5890586794
Fe  Fe16      1.0  0.45649  0.73717  0.33347  1.0000 1.5890586794
Fe  Fe17      1.0  0.56348  0.66819  0.65627  1.0000 1.5726989131
Fe  Fe18      1.0  0.93652  0.33181  0.15627  1.0000 1.5726989131
Fe  Fe19      1.0  0.06348  0.83181  0.34373  1.0000 1.5726989131
Fe  Fe20      1.0  0.43652  0.16819  0.84373  1.0000 1.5817668856
Fe  Fe21      1.0  0.42889  0.23127  0.66680  1.0000 1.5726989131
Fe  Fe22      1.0  0.07111  0.76873  0.16680  1.0000 1.5726989131
Fe  Fe23      1.0  0.92889  0.26873  0.33320  1.0000 1.5726989131
Fe  Fe24      1.0  0.57111  0.73127  0.83320  1.0000 1.5817668856
H   H1        1.0  0.45908  0.01812  0.72762  1.0000 0.1820162878
H   H2        1.0  0.04092  0.98188  0.22762  1.0000 0.1820162878
H   H3        1.0  0.95908  0.48188  0.27238  1.0000 0.1820162878
H   H4        1.0  0.54092  0.51812  0.77238  1.0000 0.1820162878
H   H5        1.0  0.50352  0.88238  0.72830  1.0000 0.1820162878
H   H6        1.0  0.99648  0.11762  0.22830  1.0000 0.1820162878
H   H7        1.0  0.00352  0.61762  0.27170  1.0000 0.1820162878
H   H8        1.0  0.49648  0.38238  0.77170  1.0000 0.1820162878
H   H9        1.0  0.64828  0.33097  0.73368  1.0000 0.1631066211
H   H10       1.0  0.85172  0.66903  0.23368  1.0000 0.1631066211
H   H11       1.0  0.14828  0.16903  0.26632  1.0000 0.1631066211
H   H12       1.0  0.35172  0.83097  0.76632  1.0000 0.1631066211
H   H13       1.0  0.31670  0.65592  0.73518  1.0000 0.1725779109
H   H14       1.0  0.18330  0.34408  0.23518  1.0000 0.1725779109
H   H15       1.0  0.81670  0.84408  0.26482  1.0000 0.1725779109
H   H16       1.0  0.68330  0.15592  0.76482  1.0000 0.1725779109
H   H17       1.0  0.42505  0.52015  0.27908  1.0000 0.1725779109
H   H18       1.0  0.07495  0.47985  0.77908  1.0000 0.1725779109
H   H19       1.0  0.92505  0.97985  0.72092  1.0000 0.1725779109
H   H20       1.0  0.57495  0.02015  0.22092  1.0000 0.1725779109
H   H21       1.0  0.45009  0.38161  0.27689  1.0000 0.1725779109
H   H22       1.0  0.04991  0.61839  0.77689  1.0000 0.1725779109
H   H23       1.0  0.95009  0.11839  0.72311  1.0000 0.1725779109
H   H24       1.0  0.54991  0.88161  0.22311  1.0000 0.1725779109
H   H25       1.0  0.17771  0.70672  0.73931  1.0000 0.1631066211
H   H26       1.0  0.32229  0.29328  0.23931  1.0000 0.1631066211
H   H27       1.0  0.67771  0.79328  0.26069  1.0000 0.1631066211
H   H28       1.0  0.82229  0.20672  0.76069  1.0000 0.1631066211
H   H29       1.0  0.79320  0.37800  0.72854  1.0000 0.1725779109
H   H30       1.0  0.70680  0.62200  0.22854  1.0000 0.1725779109
H   H31       1.0  0.29320  0.12200  0.27146  1.0000 0.1725779109
H   H32       1.0  0.20680  0.87800  0.77146  1.0000 0.1725779109
C   C1        1.0  0.39650  0.67920  0.61210  1.0000 0.5705903218
C   C2        1.0  0.10350  0.32080  0.11210  1.0000 0.5803242684
C   C3        1.0  0.89650  0.82080  0.38790  1.0000 0.5705903218
C   C4        1.0  0.60350  0.17920  0.88790  1.0000 0.5803242684
C   C5        1.0  0.46080  0.08500  0.60280  1.0000 0.5803242684
C   C6        1.0  0.03920  0.91500  0.10280  1.0000 0.5803242684
C   C7        1.0  0.96080  0.41500  0.39720  1.0000 0.5803242684
C   C8        1.0  0.53920  0.58500  0.89720  1.0000 0.5803242684
C   C9        1.0  0.45430  0.51300  0.37540  1.0000 0.0892596769
C   C10       1.0  0.04570  0.48700  0.87540  1.0000 0.0892596769
C   C11       1.0  0.95430  0.98700  0.62460  1.0000 0.0892596769
C   C12       1.0  0.54570  0.01300  0.12460  1.0000 0.0892596769
C   C13       1.0  0.45550  0.58840  0.40160  1.0000 0.5705903218
C   C14       1.0  0.04450  0.41160  0.90160  1.0000 0.5599561633
C   C15       1.0  0.95550  0.91160  0.59840  1.0000 0.5599561633
C   C16       1.0  0.54450  0.08840  0.09840  1.0000 0.5705903218
C   C17       1.0  0.67030  0.28840  0.64280  1.0000 0.1089578826
C   C18       1.0  0.82970  0.71160  0.14280  1.0000 0.1089578826
C   C19       1.0  0.17030  0.21160  0.35720  1.0000 0.1089578826
C   C20       1.0  0.32970  0.78840  0.85720  1.0000 0.1089578826
C   C21       1.0  0.47500  0.00960  0.63000  1.0000 0.1089578826
C   C22       1.0  0.02500  0.99040  0.13000  1.0000 0.1089578826
C   C23       1.0  0.97500  0.49040  0.37000  1.0000 0.1089578826
C   C24       1.0  0.52500  0.50960  0.87000  1.0000 0.1089578826
C   C25       1.0  0.50900  0.89430  0.62930  1.0000 0.0892596769
C   C26       1.0  0.99100  0.10570  0.12930  1.0000 0.0892596769
C   C27       1.0  0.00900  0.60570  0.37070  1.0000 0.0892596769
C   C28       1.0  0.49100  0.39430  0.87070  1.0000 0.0892596769
C   C29       1.0  0.59790  0.25060  0.61980  1.0000 0.5705903218
C   C30       1.0  0.90210  0.74940  0.11980  1.0000 0.5705903218
C   C31       1.0  0.09790  0.24940  0.38020  1.0000 0.5705903218
C   C32       1.0  0.40210  0.75060  0.88020  1.0000 0.5705903218
C   C33       1.0  0.47480  0.39300  0.37570  1.0000 0.0892596769
C   C34       1.0  0.02520  0.60700  0.87570  1.0000 0.0892596769
C   C35       1.0  0.97480  0.10700  0.62430  1.0000 0.0834963144
C   C36       1.0  0.52520  0.89300  0.12430  1.0000 0.0892596769
C   C37       1.0  0.31720  0.69120  0.63980  1.0000 0.1024729789
C   C38       1.0  0.18280  0.30880  0.13980  1.0000 0.1024729789
C   C39       1.0  0.81720  0.80880  0.36020  1.0000 0.1024729789
C   C40       1.0  0.68280  0.19120  0.86020  1.0000 0.1024729789
C   C41       1.0  0.47330  0.98880  0.69140  1.0000 -0.1291602283
C   C42       1.0  0.02670  0.01120  0.19140  1.0000 -0.1291602283
C   C43       1.0  0.97330  0.51120  0.30860  1.0000 -0.1291602283
C   C44       1.0  0.52670  0.48880  0.80860  1.0000 -0.1291602283
C   C45       1.0  0.19480  0.73410  0.64260  1.0000 0.0892596769
C   C46       1.0  0.30520  0.26590  0.14260  1.0000 0.0892596769
C   C47       1.0  0.69480  0.76590  0.35740  1.0000 0.0892596769
C   C48       1.0  0.80520  0.23410  0.85740  1.0000 0.1024729789
C   C49       1.0  0.87400  0.33190  0.61040  1.0000 0.5803242684
C   C50       1.0  0.62600  0.66810  0.11040  1.0000 0.5803242684
C   C51       1.0  0.37400  0.16810  0.38960  1.0000 0.5803242684
C   C52       1.0  0.12600  0.83190  0.88960  1.0000 0.5803242684
C   C53       1.0  0.52930  0.82260  0.60110  1.0000 0.5599561633
C   C54       1.0  0.97070  0.17740  0.10110  1.0000 0.5599561633
C   C55       1.0  0.02930  0.67740  0.39890  1.0000 0.5599561633
C   C56       1.0  0.47070  0.32260  0.89890  1.0000 0.5599561633
C   C57       1.0  0.12420  0.76870  0.61670  1.0000 0.5599561633
C   C58       1.0  0.37580  0.23130  0.11670  1.0000 0.5599561633
C   C59       1.0  0.62420  0.73130  0.38330  1.0000 0.5599561633
C   C60       1.0  0.87580  0.26870  0.88330  1.0000 0.5599561633
C   C61       1.0  0.49720  0.91330  0.69160  1.0000 -0.1191730305
C   C62       1.0  0.00280  0.08670  0.19160  1.0000 -0.1191730305
C   C63       1.0  0.99720  0.58670  0.30840  1.0000 -0.1191730305
C   C64       1.0  0.50280  0.41330  0.80840  1.0000 -0.1191730305
C   C65       1.0  0.68470  0.32430  0.69920  1.0000 -0.1408807888
C   C66       1.0  0.81530  0.67570  0.19920  1.0000 -0.1408807888
C   C67       1.0  0.18470  0.17570  0.30080  1.0000 -0.1408807888
C   C68       1.0  0.31530  0.82430  0.80080  1.0000 -0.1408807888
C   C69       1.0  0.49570  0.32120  0.40070  1.0000 0.5497687281
C   C70       1.0  0.00430  0.67880  0.90070  1.0000 0.5497687281
C   C71       1.0  0.99570  0.17880  0.59930  1.0000 0.5497687281
C   C72       1.0  0.50430  0.82120  0.09930  1.0000 0.5497687281
C   C73       1.0  0.79320  0.32710  0.63930  1.0000 0.1089578826
C   C74       1.0  0.70680  0.67290  0.13930  1.0000 0.1089578826
C   C75       1.0  0.29320  0.17290  0.36070  1.0000 0.1089578826
C   C76       1.0  0.20680  0.82710  0.86070  1.0000 0.1089578826
C   C77       1.0  0.28890  0.67900  0.70080  1.0000 -0.1291602283
C   C78       1.0  0.21110  0.32100  0.20080  1.0000 -0.1291602283
C   C79       1.0  0.78890  0.82100  0.29920  1.0000 -0.1291602283
C   C80       1.0  0.71110  0.17900  0.79920  1.0000 -0.1291602283
C   C81       1.0  0.44070  0.49010  0.31440  1.0000 -0.1191730305
C   C82       1.0  0.05930  0.50990  0.81440  1.0000 -0.1191730305
C   C83       1.0  0.94070  0.00990  0.68560  1.0000 -0.1191730305
C   C84       1.0  0.55930  0.99010  0.18560  1.0000 -0.1191730305
C   C85       1.0  0.45420  0.41330  0.31320  1.0000 -0.1011853582
C   C86       1.0  0.04580  0.58670  0.81320  1.0000 -0.1011853582
C   C87       1.0  0.95420  0.08670  0.68680  1.0000 -0.1011853582
C   C88       1.0  0.54580  0.91330  0.18680  1.0000 -0.1011853582
C   C89       1.0  0.21200  0.70670  0.70300  1.0000 -0.1191730305
C   C90       1.0  0.28800  0.29330  0.20300  1.0000 -0.1191730305
C   C91       1.0  0.71200  0.79330  0.29700  1.0000 -0.1191730305
C   C92       1.0  0.78800  0.20670  0.79700  1.0000 -0.1191730305
C   C93       1.0  0.76550  0.35040  0.69670  1.0000 -0.1408807888
C   C94       1.0  0.73450  0.64960  0.19670  1.0000 -0.1408807888
C   C95       1.0  0.26550  0.14960  0.30330  1.0000 -0.1408807888
C   C96       1.0  0.23450  0.85040  0.80330  1.0000 -0.1408807888
O   O1        1.0  0.48490  0.60160  0.45610  1.0000 -0.4529979577
O   O2        1.0  0.01510  0.39840  0.95610  1.0000 -0.4529979577
O   O3        1.0  0.98490  0.89840  0.54390  1.0000 -0.4529979577
O   O4        1.0  0.51510  0.10160  0.04390  1.0000 -0.457932882
O   O5        1.0  0.47550  0.45460  0.41470  1.0000 -0.0606830845
O   O6        1.0  0.02450  0.54540  0.91470  1.0000 -0.0606830845
O   O7        1.0  0.97550  0.04540  0.58530  1.0000 -0.0606830845
O   O8        1.0  0.52450  0.95460  0.08530  1.0000 -0.0606830845
O   O9        1.0  0.42500  0.63640  0.36310  1.0000 -0.526836225
O   O10       1.0  0.07500  0.36360  0.86310  1.0000 -0.526836225
O   O11       1.0  0.92500  0.86360  0.63690  1.0000 -0.526836225
O   O12       1.0  0.57500  0.13640  0.13690  1.0000 -0.526836225
O   O13       1.0  0.59430  0.23380  0.56130  1.0000 -0.4795384691
O   O14       1.0  0.90570  0.76620  0.06130  1.0000 -0.4795384691
O   O15       1.0  0.09430  0.26620  0.43870  1.0000 -0.4795384691
O   O16       1.0  0.40570  0.73380  0.93870  1.0000 -0.4795384691
O   O17       1.0  0.49590  0.95310  0.59010  1.0000 -0.0606830845
O   O18       1.0  0.00410  0.04690  0.09010  1.0000 -0.0606830845
O   O19       1.0  0.99590  0.54690  0.40990  1.0000 -0.0606830845
O   O20       1.0  0.50410  0.45310  0.90990  1.0000 -0.0606830845
O   O21       1.0  0.92590  0.36240  0.64800  1.0000 -0.5205265539
O   O22       1.0  0.57410  0.63760  0.14800  1.0000 -0.5205265539
O   O23       1.0  0.42590  0.13760  0.35200  1.0000 -0.5205265539
O   O24       1.0  0.07410  0.86240  0.85200  1.0000 -0.5205265539
O   O25       1.0  0.73690  0.29020  0.60440  1.0000 -0.0606830845
O   O26       1.0  0.76310  0.70980  0.10440  1.0000 -0.0606830845
O   O27       1.0  0.23690  0.20980  0.39560  1.0000 -0.0606830845
O   O28       1.0  0.26310  0.79020  0.89560  1.0000 -0.0606830845
O   O29       1.0  0.40650  0.70200  0.55410  1.0000 -0.5411279528
O   O30       1.0  0.09350  0.29800  0.05410  1.0000 -0.5411279528
O   O31       1.0  0.90650  0.79800  0.44590  1.0000 -0.5411279528
O   O32       1.0  0.59350  0.20200  0.94590  1.0000 -0.5411279528
O   O33       1.0  0.25970  0.72490  0.60400  1.0000 -0.053867112
O   O34       1.0  0.24030  0.27510  0.10400  1.0000 -0.053867112
O   O35       1.0  0.75970  0.77510  0.39600  1.0000 -0.053867112
O   O36       1.0  0.74030  0.22490  0.89600  1.0000 -0.053867112
O   O37       1.0  0.88620  0.30890  0.55520  1.0000 -0.4795384691
O   O38       1.0  0.61380  0.69110  0.05520  1.0000 -0.4795384691
O   O39       1.0  0.38620  0.19110  0.44480  1.0000 -0.4795384691
O   O40       1.0  0.11380  0.80890  0.94480  1.0000 -0.4795384691
O   O41       1.0  0.11850  0.77500  0.55630  1.0000 -0.4795384691
O   O42       1.0  0.38150  0.22500  0.05630  1.0000 -0.4795384691
O   O43       1.0  0.61850  0.72500  0.44370  1.0000 -0.4742552369
O   O44       1.0  0.88150  0.27500  0.94370  1.0000 -0.4742552369
O   O45       1.0  0.53230  0.81480  0.54100  1.0000 -0.457932882
O   O46       1.0  0.96770  0.18520  0.04100  1.0000 -0.457932882
O   O47       1.0  0.03230  0.68520  0.45900  1.0000 -0.457932882
O   O48       1.0  0.46770  0.31480  0.95900  1.0000 -0.457932882
O   O49       1.0  0.50240  0.27210  0.35760  1.0000 -0.5205265539
O   O50       1.0  0.99760  0.72790  0.85760  1.0000 -0.526836225
O   O51       1.0  0.00240  0.22790  0.64240  1.0000 -0.5205265539
O   O52       1.0  0.49760  0.77210  0.14240  1.0000 -0.5205265539
O   O53       1.0  0.50420  0.31280  0.46010  1.0000 -0.457932882
O   O54       1.0  0.99580  0.68720  0.96010  1.0000 -0.4529979577
O   O55       1.0  0.00420  0.18720  0.53990  1.0000 -0.457932882
O   O56       1.0  0.49580  0.81280  0.03990  1.0000 -0.457932882
O   O57       1.0  0.54750  0.23850  0.66270  1.0000 -0.5205265539
O   O58       1.0  0.95250  0.76150  0.16270  1.0000 -0.5205265539
O   O59       1.0  0.04750  0.26150  0.33730  1.0000 -0.5205265539
O   O60       1.0  0.45250  0.73850  0.83730  1.0000 -0.5205265539
O   O61       1.0  0.48600  0.09940  0.54880  1.0000 -0.4290834843
O   O62       1.0  0.01400  0.90060  0.04880  1.0000 -0.4290834843
O   O63       1.0  0.98600  0.40060  0.45120  1.0000 -0.4290834843
O   O64       1.0  0.51400  0.59940  0.95120  1.0000 -0.4290834843
O   O65       1.0  0.07360  0.79130  0.65700  1.0000 -0.5113392203
O   O66       1.0  0.42640  0.20870  0.15700  1.0000 -0.5113392203
O   O67       1.0  0.57360  0.70870  0.34300  1.0000 -0.5113392203
O   O68       1.0  0.92640  0.29130  0.84300  1.0000 -0.5113392203
O   O69       1.0  0.44590  0.64810  0.64780  1.0000 -0.5001048549
O   O70       1.0  0.05410  0.35190  0.14780  1.0000 -0.5001048549
O   O71       1.0  0.94590  0.85190  0.35220  1.0000 -0.5001048549
O   O72       1.0  0.55410  0.14810  0.85220  1.0000 -0.5001048549
O   O73       1.0  0.42270  0.12580  0.64010  1.0000 -0.5001048549
O   O74       1.0  0.07730  0.87420  0.14010  1.0000 -0.5001048549
O   O75       1.0  0.92270  0.37420  0.35990  1.0000 -0.5001048549
O   O76       1.0  0.57730  0.62580  0.85990  1.0000 -0.5001048549
O   O77       1.0  0.54100  0.77270  0.64430  1.0000 -0.5205265539
O   O78       1.0  0.95900  0.22730  0.14430  1.0000 -0.5205265539
O   O79       1.0  0.04100  0.72730  0.35570  1.0000 -0.5205265539
O   O80       1.0  0.45900  0.27270  0.85570  1.0000 -0.5205265539
F   F1        1.0  0.55580  0.15740  0.43740  1.0000 -0.526836225
F   F2        1.0  0.94420  0.84260  0.93740  1.0000 -0.526836225
F   F3        1.0  0.05580  0.34260  0.56260  1.0000 -0.526836225
F   F4        1.0  0.44420  0.65740  0.06260  1.0000 -0.526836225
F   F5        1.0  0.56620  0.06990  0.32500  1.0000 -0.457932882
F   F6        1.0  0.93380  0.93010  0.82500  1.0000 -0.457932882
F   F7        1.0  0.06620  0.43010  0.67500  1.0000 -0.457932882
F   F8        1.0  0.43380  0.56990  0.17500  1.0000 -0.457932882
F   F9        1.0  0.53330  0.19460  0.25310  1.0000 -0.5113392203
F   F10       1.0  0.96670  0.80540  0.75310  1.0000 -0.5113392203
F   F11       1.0  0.03330  0.30540  0.74690  1.0000 -0.5113392203
F   F12       1.0  0.46670  0.69460  0.24690  1.0000 -0.5113392203
F   F13       1.0  0.42230  0.33270  0.68760  1.0000 -0.4795384691
F   F14       1.0  0.07770  0.66730  0.18760  1.0000 -0.4795384691
F   F15       1.0  0.92230  0.16730  0.31240  1.0000 -0.4795384691
F   F16       1.0  0.57770  0.83270  0.81240  1.0000 -0.4795384691
F   F17       1.0  0.42620  0.25500  0.57500  1.0000 -0.5205265539
F   F18       1.0  0.07380  0.74500  0.07500  1.0000 -0.5205265539
F   F19       1.0  0.92620  0.24500  0.42500  1.0000 -0.5205265539
F   F20       1.0  0.57380  0.75500  0.92500  1.0000 -0.5205265539
F   F21       1.0  0.44620  0.19120  0.75280  1.0000 -0.5001048549
F   F22       1.0  0.05380  0.80880  0.25280  1.0000 -0.5001048549
F   F23       1.0  0.94620  0.30880  0.24720  1.0000 -0.5001048549
F   F24       1.0  0.55380  0.69120  0.74720  1.0000 -0.5001048549
F   F25       1.0  0.31720  0.22680  0.67750  1.0000 -0.3814825792
F   F26       1.0  0.18280  0.77320  0.17750  1.0000 -0.3909446477
F   F27       1.0  0.81720  0.27320  0.32250  1.0000 -0.3814825792
F   F28       1.0  0.68280  0.72680  0.82250  1.0000 -0.3814825792
F   F29       1.0  0.54240  0.26640  0.07550  1.0000 -0.5205265539
F   F30       1.0  0.95760  0.73360  0.57550  1.0000 -0.5205265539
F   F31       1.0  0.04240  0.23360  0.92450  1.0000 -0.526836225
F   F32       1.0  0.45760  0.76640  0.42450  1.0000 -0.5205265539
F   F33       1.0  0.42630  0.15370  0.93800  1.0000 -0.526836225
F   F34       1.0  0.07370  0.84630  0.43800  1.0000 -0.526836225
F   F35       1.0  0.92630  0.34630  0.06200  1.0000 -0.5205265539
F   F36       1.0  0.57370  0.65370  0.56200  1.0000 -0.526836225
F   F37       1.0  0.64930  0.19890  0.34180  1.0000 -0.4206857015
F   F38       1.0  0.85070  0.80110  0.84180  1.0000 -0.4290834843
F   F39       1.0  0.14930  0.30110  0.65820  1.0000 -0.4206857015
F   F40       1.0  0.35070  0.69890  0.15820  1.0000 -0.4290834843
F   F41       1.0  0.64900  0.26290  0.17590  1.0000 -0.3387240499
F   F42       1.0  0.85100  0.73710  0.67590  1.0000 -0.3387240499
F   F43       1.0  0.14900  0.23710  0.82410  1.0000 -0.3387240499
F   F44       1.0  0.35100  0.76290  0.32410  1.0000 -0.3387240499
F   F45       1.0  0.57560  0.56620  0.66860  1.0000 -0.4529979577
F   F46       1.0  0.92440  0.43380  0.16860  1.0000 -0.4529979577
F   F47       1.0  0.07560  0.93380  0.33140  1.0000 -0.457932882
F   F48       1.0  0.42440  0.06620  0.83140  1.0000 -0.4529979577
F   F49       1.0  0.50730  0.33340  0.18840  1.0000 -0.5001048549
F   F50       1.0  0.99270  0.66667  0.68840  1.0000 -0.5001048549
F   F51       1.0  0.00730  0.16660  0.81160  1.0000 -0.5001048549
F   F52       1.0  0.49270  0.83340  0.31160  1.0000 -0.5001048549
F   F53       1.0  0.67350  0.68790  0.65710  1.0000 -0.4206857015
F   F54       1.0  0.82650  0.31210  0.15710  1.0000 -0.4206857015
F   F55       1.0  0.17350  0.81210  0.34290  1.0000 -0.4206857015
F   F56       1.0  0.32650  0.18790  0.84290  1.0000 -0.4206857015
