# DDEC6 charges by PACMAN v1.1 (https://github.com/mtap-research/PACMAN-charge/)
data_2024[Zn][crb]3[ASR]17
_chemical_formula_sum              "Zn16 H96 C96 N64"
_cell_length_a       9.63356
_cell_length_b       24.0923
_cell_length_c       24.4097
_cell_angle_alpha    90
_cell_angle_beta     90
_cell_angle_gamma    90

_symmetry_space_group_name_H-M    "P 1"
_symmetry_Int_Tables_number       1

loop_
  _symmetry_equiv_pos_as_xyz
  'x, y, z'

loop_
  _atom_site_type_symbol
  _atom_site_label
  _atom_site_symmetry_multiplicity
  _atom_site_fract_x
  _atom_site_fract_y
  _atom_site_fract_z
  _atom_site_occupancy
  _atom_site_charge
Zn  Zn1       1.0  0.01229  0.17442  0.50141  1.0000 0.622564341
Zn  Zn2       1.0  0.51229  0.32558  0.49859  1.0000 0.622564341
Zn  Zn3       1.0  0.98771  0.67442  0.99859  1.0000 0.622564341
Zn  Zn4       1.0  0.48771  0.82558  0.00141  1.0000 0.622564341
Zn  Zn5       1.0  0.98771  0.82558  0.49859  1.0000 0.622564341
Zn  Zn6       1.0  0.48771  0.67442  0.50141  1.0000 0.622564341
Zn  Zn7       1.0  0.01229  0.32558  0.00141  1.0000 0.622564341
Zn  Zn8       1.0  0.51229  0.17442  0.99859  1.0000 0.622564341
Zn  Zn9       1.0  0.00268  0.00175  0.32394  1.0000 0.622564341
Zn  Zn10      1.0  0.50268  0.49825  0.67606  1.0000 0.622564341
Zn  Zn11      1.0  0.99732  0.50175  0.17606  1.0000 0.622564341
Zn  Zn12      1.0  0.49732  0.99825  0.82394  1.0000 0.622564341
Zn  Zn13      1.0  0.99732  0.99825  0.67606  1.0000 0.622564341
Zn  Zn14      1.0  0.49732  0.50175  0.32394  1.0000 0.622564341
Zn  Zn15      1.0  0.00268  0.49825  0.82394  1.0000 0.622564341
Zn  Zn16      1.0  0.50268  0.00175  0.17606  1.0000 0.622564341
H   H1        1.0  0.75480  0.33770  0.40830  1.0000 0.0998536958
H   H2        1.0  0.25480  0.16230  0.59170  1.0000 0.0998536958
H   H3        1.0  0.24520  0.83770  0.09170  1.0000 0.0998536958
H   H4        1.0  0.74520  0.66230  0.90830  1.0000 0.0998536958
H   H5        1.0  0.24520  0.66230  0.59170  1.0000 0.0998536958
H   H6        1.0  0.74520  0.83770  0.40830  1.0000 0.0998536958
H   H7        1.0  0.75480  0.16230  0.90830  1.0000 0.0998536958
H   H8        1.0  0.25480  0.33770  0.09170  1.0000 0.0998536958
H   H9        1.0  0.48840  0.94540  0.29360  1.0000 0.0998536958
H   H10       1.0  0.98840  0.55460  0.70640  1.0000 0.0998536958
H   H11       1.0  0.51160  0.44540  0.20640  1.0000 0.0998536958
H   H12       1.0  0.01160  0.05460  0.79360  1.0000 0.0998536958
H   H13       1.0  0.51160  0.05460  0.70640  1.0000 0.0998536958
H   H14       1.0  0.01160  0.44540  0.29360  1.0000 0.0998536958
H   H15       1.0  0.48840  0.55460  0.79360  1.0000 0.0998536958
H   H16       1.0  0.98840  0.94540  0.20640  1.0000 0.0998536958
H   H17       1.0  0.96180  0.05140  0.44490  1.0000 0.0707094475
H   H18       1.0  0.46180  0.44860  0.55510  1.0000 0.0707094475
H   H19       1.0  0.03820  0.55140  0.05510  1.0000 0.0707094475
H   H20       1.0  0.53820  0.94860  0.94490  1.0000 0.0707094475
H   H21       1.0  0.03820  0.94860  0.55510  1.0000 0.0707094475
H   H22       1.0  0.53820  0.55140  0.44490  1.0000 0.0707094475
H   H23       1.0  0.96180  0.44860  0.94490  1.0000 0.0707094475
H   H24       1.0  0.46180  0.05140  0.05510  1.0000 0.0707094475
H   H25       1.0  0.20500  0.81890  0.39850  1.0000 0.0998536958
H   H26       1.0  0.70500  0.68110  0.60150  1.0000 0.0998536958
H   H27       1.0  0.79500  0.31890  0.10150  1.0000 0.0998536958
H   H28       1.0  0.29500  0.18110  0.89850  1.0000 0.0998536958
H   H29       1.0  0.79500  0.18110  0.60150  1.0000 0.0998536958
H   H30       1.0  0.29500  0.31890  0.39850  1.0000 0.0998536958
H   H31       1.0  0.20500  0.68110  0.89850  1.0000 0.0998536958
H   H32       1.0  0.70500  0.81890  0.10150  1.0000 0.0998536958
H   H33       1.0  0.14100  0.12140  0.30390  1.0000 0.0998536958
H   H34       1.0  0.64100  0.37860  0.69610  1.0000 0.0998536958
H   H35       1.0  0.85900  0.62140  0.19610  1.0000 0.0998536958
H   H36       1.0  0.35900  0.87860  0.80390  1.0000 0.0998536958
H   H37       1.0  0.85900  0.87860  0.69610  1.0000 0.0998536958
H   H38       1.0  0.35900  0.62140  0.30390  1.0000 0.0998536958
H   H39       1.0  0.14100  0.37860  0.80390  1.0000 0.0998536958
H   H40       1.0  0.64100  0.12140  0.19610  1.0000 0.0998536958
H   H41       1.0  0.14700  0.19770  0.38970  1.0000 0.0908833003
H   H42       1.0  0.64700  0.30230  0.61030  1.0000 0.0908833003
H   H43       1.0  0.85300  0.69770  0.11030  1.0000 0.0908833003
H   H44       1.0  0.35300  0.80230  0.88970  1.0000 0.0908833003
H   H45       1.0  0.85300  0.80230  0.61030  1.0000 0.0908833003
H   H46       1.0  0.35300  0.69770  0.38970  1.0000 0.0908833003
H   H47       1.0  0.14700  0.30230  0.88970  1.0000 0.0908833003
H   H48       1.0  0.64700  0.19770  0.11030  1.0000 0.0908833003
H   H49       1.0  0.91880  0.94230  0.44020  1.0000 0.0707094475
H   H50       1.0  0.41880  0.55770  0.55980  1.0000 0.0707094475
H   H51       1.0  0.08120  0.44230  0.05980  1.0000 0.0707094475
H   H52       1.0  0.58120  0.05770  0.94020  1.0000 0.0707094475
H   H53       1.0  0.08120  0.05770  0.55980  1.0000 0.0707094475
H   H54       1.0  0.58120  0.44230  0.44020  1.0000 0.0707094475
H   H55       1.0  0.91880  0.55770  0.94020  1.0000 0.0707094475
H   H56       1.0  0.41880  0.94230  0.05980  1.0000 0.0707094475
H   H57       1.0  0.19800  0.89690  0.31740  1.0000 0.1056919825
H   H58       1.0  0.69800  0.60310  0.68260  1.0000 0.1056919825
H   H59       1.0  0.80200  0.39690  0.18260  1.0000 0.1056919825
H   H60       1.0  0.30200  0.10310  0.81740  1.0000 0.1056919825
H   H61       1.0  0.80200  0.10310  0.68260  1.0000 0.1056919825
H   H62       1.0  0.30200  0.39690  0.31740  1.0000 0.1056919825
H   H63       1.0  0.19800  0.60310  0.81740  1.0000 0.1056919825
H   H64       1.0  0.69800  0.89690  0.18260  1.0000 0.1056919825
H   H65       1.0  0.71290  0.22550  0.53890  1.0000 0.0437472012
H   H66       1.0  0.21290  0.27450  0.46110  1.0000 0.0437472012
H   H67       1.0  0.28710  0.72550  0.96110  1.0000 0.0437472012
H   H68       1.0  0.78710  0.77450  0.03890  1.0000 0.0437472012
H   H69       1.0  0.28710  0.77450  0.46110  1.0000 0.0437472012
H   H70       1.0  0.78710  0.72550  0.53890  1.0000 0.0437472012
H   H71       1.0  0.71290  0.27450  0.03890  1.0000 0.0437472012
H   H72       1.0  0.21290  0.22550  0.96110  1.0000 0.0437472012
H   H73       1.0  0.98630  0.27050  0.41110  1.0000 0.0908833003
H   H74       1.0  0.48630  0.22950  0.58890  1.0000 0.0908833003
H   H75       1.0  0.01370  0.77050  0.08890  1.0000 0.0908833003
H   H76       1.0  0.51370  0.72950  0.91110  1.0000 0.0908833003
H   H77       1.0  0.01370  0.72950  0.58890  1.0000 0.0908833003
H   H78       1.0  0.51370  0.77050  0.41110  1.0000 0.0908833003
H   H79       1.0  0.98630  0.22950  0.91110  1.0000 0.0908833003
H   H80       1.0  0.48630  0.27050  0.08890  1.0000 0.0908833003
H   H81       1.0  0.71570  0.94890  0.36390  1.0000 0.0998536958
H   H82       1.0  0.21570  0.55110  0.63610  1.0000 0.0998536958
H   H83       1.0  0.28430  0.44890  0.13610  1.0000 0.0998536958
H   H84       1.0  0.78430  0.05110  0.86390  1.0000 0.0998536958
H   H85       1.0  0.28430  0.05110  0.63610  1.0000 0.0998536958
H   H86       1.0  0.78430  0.44890  0.36390  1.0000 0.0998536958
H   H87       1.0  0.71570  0.55110  0.86390  1.0000 0.0998536958
H   H88       1.0  0.21570  0.94890  0.13610  1.0000 0.0998536958
H   H89       1.0  0.80810  0.03780  0.22100  1.0000 0.0750545366
H   H90       1.0  0.30810  0.46220  0.77900  1.0000 0.0750545366
H   H91       1.0  0.19190  0.53780  0.27900  1.0000 0.0750545366
H   H92       1.0  0.69190  0.96220  0.72100  1.0000 0.0750545366
H   H93       1.0  0.19190  0.96220  0.77900  1.0000 0.0750545366
H   H94       1.0  0.69190  0.53780  0.22100  1.0000 0.0750545366
H   H95       1.0  0.80810  0.46220  0.72100  1.0000 0.0750545366
H   H96       1.0  0.30810  0.03780  0.27900  1.0000 0.0750545366
C   C1        1.0  0.78052  0.30484  0.43651  1.0000 -0.0599489333
C   C2        1.0  0.28052  0.19516  0.56349  1.0000 -0.0599489333
C   C3        1.0  0.21948  0.80484  0.06349  1.0000 -0.0599489333
C   C4        1.0  0.71948  0.69516  0.93651  1.0000 -0.0599489333
C   C5        1.0  0.21948  0.69516  0.56349  1.0000 -0.0599489333
C   C6        1.0  0.71948  0.80484  0.43651  1.0000 -0.0599489333
C   C7        1.0  0.78052  0.19516  0.93651  1.0000 -0.0599489333
C   C8        1.0  0.28052  0.30484  0.06349  1.0000 -0.0599489333
C   C9        1.0  0.58845  0.96598  0.28956  1.0000 -0.0685948751
C   C10       1.0  0.08845  0.53402  0.71044  1.0000 -0.0685948751
C   C11       1.0  0.41155  0.46598  0.21044  1.0000 -0.0685948751
C   C12       1.0  0.91155  0.03402  0.78956  1.0000 -0.0685948751
C   C13       1.0  0.41155  0.03402  0.71044  1.0000 -0.0685948751
C   C14       1.0  0.91155  0.46598  0.28956  1.0000 -0.0685948751
C   C15       1.0  0.58845  0.53402  0.78956  1.0000 -0.0685948751
C   C16       1.0  0.08845  0.96598  0.21044  1.0000 -0.0685948751
C   C17       1.0  0.01487  0.08040  0.41802  1.0000 0.136378984
C   C18       1.0  0.51487  0.41960  0.58198  1.0000 0.136378984
C   C19       1.0  0.98513  0.58040  0.08198  1.0000 0.136378984
C   C20       1.0  0.48513  0.91960  0.91802  1.0000 0.136378984
C   C21       1.0  0.98513  0.91960  0.58198  1.0000 0.136378984
C   C22       1.0  0.48513  0.58040  0.41802  1.0000 0.136378984
C   C23       1.0  0.01487  0.41960  0.91802  1.0000 0.136378984
C   C24       1.0  0.51487  0.08040  0.08198  1.0000 0.136378984
C   C25       1.0  0.14339  0.85556  0.39555  1.0000 -0.0685948751
C   C26       1.0  0.64339  0.64444  0.60445  1.0000 -0.0685948751
C   C27       1.0  0.85661  0.35556  0.10445  1.0000 -0.0685948751
C   C28       1.0  0.35661  0.14444  0.89555  1.0000 -0.0685948751
C   C29       1.0  0.85661  0.14444  0.60445  1.0000 -0.0685948751
C   C30       1.0  0.35661  0.35556  0.39555  1.0000 -0.0685948751
C   C31       1.0  0.14339  0.64444  0.89555  1.0000 -0.0685948751
C   C32       1.0  0.64339  0.85556  0.10445  1.0000 -0.0685948751
C   C33       1.0  0.10547  0.11768  0.34606  1.0000 -0.0599489333
C   C34       1.0  0.60547  0.38232  0.65394  1.0000 -0.0599489333
C   C35       1.0  0.89453  0.61768  0.15394  1.0000 -0.0599489333
C   C36       1.0  0.39453  0.88232  0.84606  1.0000 -0.0599489333
C   C37       1.0  0.89453  0.88232  0.65394  1.0000 -0.0599489333
C   C38       1.0  0.39453  0.61768  0.34606  1.0000 -0.0599489333
C   C39       1.0  0.10547  0.38232  0.84606  1.0000 -0.0599489333
C   C40       1.0  0.60547  0.11768  0.15394  1.0000 -0.0599489333
C   C41       1.0  0.10929  0.15535  0.38790  1.0000 -0.0599489333
C   C42       1.0  0.60929  0.34465  0.61210  1.0000 -0.0599489333
C   C43       1.0  0.89071  0.65535  0.11210  1.0000 -0.0599489333
C   C44       1.0  0.39071  0.84465  0.88790  1.0000 -0.0599489333
C   C45       1.0  0.89071  0.84465  0.61210  1.0000 -0.0599489333
C   C46       1.0  0.39071  0.65535  0.38790  1.0000 -0.0599489333
C   C47       1.0  0.10929  0.34465  0.88790  1.0000 -0.0599489333
C   C48       1.0  0.60929  0.15535  0.11210  1.0000 -0.0599489333
C   C49       1.0  0.99535  0.91859  0.41784  1.0000 0.1222502739
C   C50       1.0  0.49535  0.58141  0.58216  1.0000 0.1222502739
C   C51       1.0  0.00465  0.41859  0.08216  1.0000 0.1222502739
C   C52       1.0  0.50465  0.08141  0.91784  1.0000 0.1222502739
C   C53       1.0  0.00465  0.08141  0.58216  1.0000 0.1222502739
C   C54       1.0  0.50465  0.41859  0.41784  1.0000 0.1222502739
C   C55       1.0  0.99535  0.58141  0.91784  1.0000 0.1222502739
C   C56       1.0  0.49535  0.91859  0.08216  1.0000 0.1222502739
C   C57       1.0  0.14194  0.89518  0.35531  1.0000 -0.0599489333
C   C58       1.0  0.64194  0.60482  0.64469  1.0000 -0.0599489333
C   C59       1.0  0.85806  0.39518  0.14469  1.0000 -0.0599489333
C   C60       1.0  0.35806  0.10482  0.85531  1.0000 -0.0599489333
C   C61       1.0  0.85806  0.10482  0.64469  1.0000 -0.0599489333
C   C62       1.0  0.35806  0.39518  0.35531  1.0000 -0.0599489333
C   C63       1.0  0.14194  0.60482  0.85531  1.0000 -0.0599489333
C   C64       1.0  0.64194  0.89518  0.14469  1.0000 -0.0599489333
C   C65       1.0  0.75581  0.24736  0.50269  1.0000 0.1552193268
C   C66       1.0  0.25581  0.25264  0.49731  1.0000 0.1552193268
C   C67       1.0  0.24419  0.74736  0.99731  1.0000 0.1552193268
C   C68       1.0  0.74419  0.75264  0.00269  1.0000 0.1552193268
C   C69       1.0  0.24419  0.75264  0.49731  1.0000 0.1552193268
C   C70       1.0  0.74419  0.74736  0.50269  1.0000 0.1552193268
C   C71       1.0  0.75581  0.25264  0.00269  1.0000 0.1552193268
C   C72       1.0  0.25581  0.24736  0.99731  1.0000 0.1552193268
C   C73       1.0  0.89505  0.27102  0.43818  1.0000 -0.0599489333
C   C74       1.0  0.39505  0.22898  0.56182  1.0000 -0.0599489333
C   C75       1.0  0.10495  0.77102  0.06182  1.0000 -0.0599489333
C   C76       1.0  0.60495  0.72898  0.93818  1.0000 -0.0599489333
C   C77       1.0  0.10495  0.72898  0.56182  1.0000 -0.0599489333
C   C78       1.0  0.60495  0.77102  0.43818  1.0000 -0.0599489333
C   C79       1.0  0.89505  0.22898  0.93818  1.0000 -0.0599489333
C   C80       1.0  0.39505  0.27102  0.06182  1.0000 -0.0599489333
C   C81       1.0  0.70156  0.96608  0.32355  1.0000 -0.0685948751
C   C82       1.0  0.20156  0.53392  0.67645  1.0000 -0.0685948751
C   C83       1.0  0.29844  0.46608  0.17645  1.0000 -0.0685948751
C   C84       1.0  0.79844  0.03392  0.82355  1.0000 -0.0685948751
C   C85       1.0  0.29844  0.03392  0.67645  1.0000 -0.0685948751
C   C86       1.0  0.79844  0.46608  0.32355  1.0000 -0.0685948751
C   C87       1.0  0.70156  0.53392  0.82355  1.0000 -0.0685948751
C   C88       1.0  0.20156  0.96608  0.17645  1.0000 -0.0685948751
C   C89       1.0  0.75250  0.01239  0.25074  1.0000 0.136378984
C   C90       1.0  0.25250  0.48761  0.74926  1.0000 0.136378984
C   C91       1.0  0.24750  0.51239  0.24926  1.0000 0.136378984
C   C92       1.0  0.74750  0.98761  0.75074  1.0000 0.136378984
C   C93       1.0  0.24750  0.98761  0.74926  1.0000 0.136378984
C   C94       1.0  0.74750  0.51239  0.25074  1.0000 0.136378984
C   C95       1.0  0.75250  0.48761  0.75074  1.0000 0.136378984
C   C96       1.0  0.25250  0.01239  0.24926  1.0000 0.136378984
N   N1        1.0  0.04542  0.06982  0.36555  1.0000 -0.2985491165
N   N2        1.0  0.54542  0.43018  0.63445  1.0000 -0.2985491165
N   N3        1.0  0.95458  0.56982  0.13445  1.0000 -0.2985491165
N   N4        1.0  0.45458  0.93018  0.86555  1.0000 -0.2985491165
N   N5        1.0  0.95458  0.93018  0.63445  1.0000 -0.2985491165
N   N6        1.0  0.45458  0.56982  0.36555  1.0000 -0.2985491165
N   N7        1.0  0.04542  0.43018  0.86555  1.0000 -0.2985491165
N   N8        1.0  0.54542  0.06982  0.13445  1.0000 -0.2985491165
N   N9        1.0  0.87879  0.23449  0.48076  1.0000 -0.2899460702
N   N10       1.0  0.37879  0.26551  0.51924  1.0000 -0.2899460702
N   N11       1.0  0.12121  0.73449  0.01924  1.0000 -0.2899460702
N   N12       1.0  0.62121  0.76551  0.98076  1.0000 -0.2899460702
N   N13       1.0  0.12121  0.76551  0.51924  1.0000 -0.2899460702
N   N14       1.0  0.62121  0.73449  0.48076  1.0000 -0.2899460702
N   N15       1.0  0.87879  0.26551  0.98076  1.0000 -0.2899460702
N   N16       1.0  0.37879  0.23449  0.01924  1.0000 -0.2899460702
N   N17       1.0  0.69233  0.28968  0.47777  1.0000 -0.2899460702
N   N18       1.0  0.19233  0.21032  0.52223  1.0000 -0.2899460702
N   N19       1.0  0.30767  0.78968  0.02223  1.0000 -0.2899460702
N   N20       1.0  0.80767  0.71032  0.97777  1.0000 -0.2899460702
N   N21       1.0  0.30767  0.71032  0.52223  1.0000 -0.2899460702
N   N22       1.0  0.80767  0.78968  0.47777  1.0000 -0.2899460702
N   N23       1.0  0.69233  0.21032  0.97777  1.0000 -0.2899460702
N   N24       1.0  0.19233  0.28968  0.02223  1.0000 -0.2899460702
N   N25       1.0  0.04719  0.93522  0.36962  1.0000 -0.2899460702
N   N26       1.0  0.54719  0.56478  0.63038  1.0000 -0.2899460702
N   N27       1.0  0.95281  0.43522  0.13038  1.0000 -0.2899460702
N   N28       1.0  0.45281  0.06478  0.86962  1.0000 -0.2899460702
N   N29       1.0  0.95281  0.06478  0.63038  1.0000 -0.2899460702
N   N30       1.0  0.45281  0.43522  0.36962  1.0000 -0.2899460702
N   N31       1.0  0.04719  0.56478  0.86962  1.0000 -0.2899460702
N   N32       1.0  0.54719  0.93522  0.13038  1.0000 -0.2899460702
N   N33       1.0  0.05131  0.13157  0.43347  1.0000 -0.2899460702
N   N34       1.0  0.55131  0.36843  0.56653  1.0000 -0.2899460702
N   N35       1.0  0.94869  0.63157  0.06653  1.0000 -0.2899460702
N   N36       1.0  0.44869  0.86843  0.93347  1.0000 -0.2899460702
N   N37       1.0  0.94869  0.86843  0.56653  1.0000 -0.2899460702
N   N38       1.0  0.44869  0.63157  0.43347  1.0000 -0.2899460702
N   N39       1.0  0.05131  0.36843  0.93347  1.0000 -0.2899460702
N   N40       1.0  0.55131  0.13157  0.06653  1.0000 -0.2899460702
N   N41       1.0  0.04937  0.87053  0.43521  1.0000 -0.2899460702
N   N42       1.0  0.54937  0.62947  0.56479  1.0000 -0.2899460702
N   N43       1.0  0.95063  0.37053  0.06479  1.0000 -0.2899460702
N   N44       1.0  0.45063  0.12947  0.93521  1.0000 -0.2899460702
N   N45       1.0  0.95063  0.12947  0.56479  1.0000 -0.2899460702
N   N46       1.0  0.45063  0.37053  0.43521  1.0000 -0.2899460702
N   N47       1.0  0.04937  0.62947  0.93521  1.0000 -0.2899460702
N   N48       1.0  0.54937  0.87053  0.06479  1.0000 -0.2899460702
N   N49       1.0  0.62143  0.99576  0.24310  1.0000 -0.2985491165
N   N50       1.0  0.12143  0.50424  0.75690  1.0000 -0.2985491165
N   N51       1.0  0.37857  0.49576  0.25690  1.0000 -0.2985491165
N   N52       1.0  0.87857  0.00424  0.74310  1.0000 -0.2985491165
N   N53       1.0  0.37857  0.00424  0.75690  1.0000 -0.2985491165
N   N54       1.0  0.87857  0.49576  0.24310  1.0000 -0.2985491165
N   N55       1.0  0.62143  0.50424  0.74310  1.0000 -0.2985491165
N   N56       1.0  0.12143  0.99576  0.25690  1.0000 -0.2985491165
N   N57       1.0  0.80606  0.99559  0.29858  1.0000 -0.2899460702
N   N58       1.0  0.30606  0.50441  0.70142  1.0000 -0.2899460702
N   N59       1.0  0.19394  0.49559  0.20142  1.0000 -0.2899460702
N   N60       1.0  0.69394  0.00441  0.79858  1.0000 -0.2899460702
N   N61       1.0  0.19394  0.00441  0.70142  1.0000 -0.2899460702
N   N62       1.0  0.69394  0.49559  0.29858  1.0000 -0.2899460702
N   N63       1.0  0.80606  0.50441  0.79858  1.0000 -0.2899460702
N   N64       1.0  0.30606  0.99559  0.20142  1.0000 -0.2899460702
